* NGSPICE file created from rippleadder.ext - technology: sky130A
.subckt rippleadder A7 B7 A6 B6 A5 A4 A3 A2 A1 S1 S2 S3 S4 S5 S6 S7 A0 DGNDD DVDDD
+ B1 B0 C0 S0 B2 B3 B4 B5 C7
X0 a_1406_n143# B0.t0 a_1136_n143# DVDDD.t71 sky130_fd_pr__pfet_01v8 ad=0.126 pd=1.14 as=0.126 ps=1.14 w=0.84 l=0.15
X1 DVDDD.t104 A7.t0 a_414_n6257# w_n825_n6335# sky130_fd_pr__pfet_01v8 ad=0.126 pd=1.14 as=0.126 ps=1.14 w=0.84 l=0.15
X2 a_414_n6526# B7.t0 DGNDD.t12 DGNDD.t11 sky130_fd_pr__nfet_01v8 ad=0.063 pd=0.72 as=0.063 ps=0.72 w=0.42 l=0.15
X3 S1.t9 C0.t7 a_1403_n1301# DGNDD.t104 sky130_fd_pr__nfet_01v8 ad=0.063 pd=0.72 as=0.063 ps=0.72 w=0.42 l=0.15
X4 a_1403_n1032# B1.t0 a_1133_n1032# w_n826_n1110# sky130_fd_pr__pfet_01v8 ad=0.126 pd=1.14 as=0.126 ps=1.14 w=0.84 l=0.15
X5 a_n670_n412# A0.t0 DGNDD.t129 DGNDD.t128 sky130_fd_pr__nfet_01v8 ad=0.063 pd=0.72 as=0.126 ps=1.44 w=0.42 l=0.15
X6 a_n313_n2133# A2.t0 DGNDD.t180 DGNDD.t179 sky130_fd_pr__nfet_01v8 ad=0.063 pd=0.72 as=0.063 ps=0.72 w=0.42 l=0.15
X7 a_416_n412# C0.t8 S0.t3 DGNDD.t38 sky130_fd_pr__nfet_01v8 ad=0.063 pd=0.72 as=0.063 ps=0.72 w=0.42 l=0.15
X8 DGNDD.t159 B0.t1 a_n310_n412# DGNDD.t158 sky130_fd_pr__nfet_01v8 ad=0.126 pd=1.44 as=0.063 ps=0.72 w=0.42 l=0.15
X9 a_413_n1301# B1.t1 DGNDD.t307 DGNDD.t306 sky130_fd_pr__nfet_01v8 ad=0.063 pd=0.72 as=0.063 ps=0.72 w=0.42 l=0.15
X10 DVDDD.t46 A1.t0 a_413_n1032# w_n826_n1110# sky130_fd_pr__pfet_01v8 ad=0.126 pd=1.14 as=0.126 ps=1.14 w=0.84 l=0.15
X11 a_n672_n6257# A7.t1 DVDDD.t136 w_n825_n6335# sky130_fd_pr__pfet_01v8 ad=0.126 pd=1.14 as=0.252 ps=2.28 w=0.84 l=0.15
X12 S0.t6 a_n250_n452# a_1406_n412# DGNDD.t281 sky130_fd_pr__nfet_01v8 ad=0.126 pd=1.44 as=0.063 ps=0.72 w=0.42 l=0.15
X13 S6.t2 a_n581_n4808# a_1403_n5405# w_n826_n5483# sky130_fd_pr__pfet_01v8 ad=0.252 pd=2.28 as=0.126 ps=1.14 w=0.84 l=0.15
X14 a_1134_n2716# A3.t0 DVDDD.t29 w_n825_n2794# sky130_fd_pr__pfet_01v8 ad=0.126 pd=1.14 as=0.126 ps=1.14 w=0.84 l=0.15
X15 S3.t2 a_n583_n2133# a_1404_n2985# DGNDD.t196 sky130_fd_pr__nfet_01v8 ad=0.126 pd=1.44 as=0.063 ps=0.72 w=0.42 l=0.15
X16 a_413_n5405# a_n581_n4808# DVDDD.t32 w_n826_n5483# sky130_fd_pr__pfet_01v8 ad=0.126 pd=1.14 as=0.126 ps=1.14 w=0.84 l=0.15
X17 a_414_n2716# A3.t1 DVDDD.t54 w_n825_n2794# sky130_fd_pr__pfet_01v8 ad=0.126 pd=1.14 as=0.252 ps=2.28 w=0.84 l=0.15
X18 DGNDD.t313 A4.t0 a_n312_n3956# DGNDD.t312 sky130_fd_pr__nfet_01v8 ad=0.063 pd=0.72 as=0.063 ps=0.72 w=0.42 l=0.15
X19 a_414_n2985# a_n583_n2133# DGNDD.t195 DGNDD.t194 sky130_fd_pr__nfet_01v8 ad=0.063 pd=0.72 as=0.063 ps=0.72 w=0.42 l=0.15
X20 a_1133_n2133# B2.t0 a_1403_n2133# DGNDD.t76 sky130_fd_pr__nfet_01v8 ad=0.063 pd=0.72 as=0.063 ps=0.72 w=0.42 l=0.15
X21 a_416_n143# A0.t1 DVDDD.t115 DVDDD.t114 sky130_fd_pr__pfet_01v8 ad=0.126 pd=1.14 as=0.252 ps=2.28 w=0.84 l=0.15
X22 DVDDD.t43 A3.t2 a_n672_n2716# w_n825_n2794# sky130_fd_pr__pfet_01v8 ad=0.12375 pd=1.125 as=0.084 ps=0.76 w=0.83 l=0.15
X23 DGNDD.t295 A6.t0 a_1133_n5674# DGNDD.t294 sky130_fd_pr__nfet_01v8 ad=0.063 pd=0.72 as=0.063 ps=0.72 w=0.42 l=0.15
X24 DVDDD.t48 B6.t0 a_n313_n5405# w_n826_n5483# sky130_fd_pr__pfet_01v8 ad=0.252 pd=2.28 as=0.126 ps=1.14 w=0.84 l=0.15
X25 a_413_n2133# a_n583_n2133# S2.t3 DGNDD.t193 sky130_fd_pr__nfet_01v8 ad=0.063 pd=0.72 as=0.063 ps=0.72 w=0.42 l=0.15
X26 DGNDD.t25 B3.t0 a_n312_n2985# DGNDD.t24 sky130_fd_pr__nfet_01v8 ad=0.126 pd=1.44 as=0.063 ps=0.72 w=0.42 l=0.15
X27 a_n312_n3687# a_n582_n2985# a_n582_n3956# w_n825_n3765# sky130_fd_pr__pfet_01v8 ad=0.126 pd=1.14 as=0.126 ps=1.14 w=0.84 l=0.15
X28 a_n582_n3956# a_n582_n2985# a_n312_n3956# DGNDD.t271 sky130_fd_pr__nfet_01v8 ad=0.063 pd=0.72 as=0.063 ps=0.72 w=0.42 l=0.15
X29 S0.t9 a_n250_n452# a_1406_n143# DVDDD.t113 sky130_fd_pr__pfet_01v8 ad=0.126 pd=1.14 as=0.126 ps=1.14 w=0.84 l=0.15
X30 a_1134_n2716# A3.t3 DVDDD.t124 w_n825_n2794# sky130_fd_pr__pfet_01v8 ad=0.126 pd=1.14 as=0.126 ps=1.14 w=0.84 l=0.15
X31 DGNDD.t14 A0.t2 a_416_n412# DGNDD.t13 sky130_fd_pr__nfet_01v8 ad=0.063 pd=0.72 as=0.063 ps=0.72 w=0.42 l=0.15
X32 a_n313_n5405# a_n581_n4808# a_n583_n5674# w_n826_n5483# sky130_fd_pr__pfet_01v8 ad=0.126 pd=1.14 as=0.126 ps=1.14 w=0.84 l=0.15
X33 a_n673_n5674# A6.t1 DGNDD.t112 DGNDD.t111 sky130_fd_pr__nfet_01v8 ad=0.063 pd=0.72 as=0.126 ps=1.44 w=0.42 l=0.15
X34 DGNDD.t249 A7.t2 a_n312_n6526# DGNDD.t248 sky130_fd_pr__nfet_01v8 ad=0.063 pd=0.72 as=0.063 ps=0.72 w=0.42 l=0.15
X35 DGNDD.t90 a_n581_n4808# a_413_n5674# DGNDD.t89 sky130_fd_pr__nfet_01v8 ad=0.063 pd=0.72 as=0.063 ps=0.72 w=0.42 l=0.15
X36 a_1404_n3956# a_n582_n2985# S4.t9 DGNDD.t270 sky130_fd_pr__nfet_01v8 ad=0.063 pd=0.72 as=0.063 ps=0.72 w=0.42 l=0.15
X37 S4.t6 a_n582_n2985# a_1404_n3687# w_n825_n3765# sky130_fd_pr__pfet_01v8 ad=0.126 pd=1.14 as=0.126 ps=1.14 w=0.84 l=0.15
X38 S0.t1 C0.t9 a_416_n143# DVDDD.t88 sky130_fd_pr__pfet_01v8 ad=0.126 pd=1.14 as=0.126 ps=1.14 w=0.84 l=0.15
X39 a_n312_n6257# a_n583_n5674# C7.t5 w_n825_n6335# sky130_fd_pr__pfet_01v8 ad=0.126 pd=1.14 as=0.126 ps=1.14 w=0.84 l=0.15
X40 C7.t7 a_n583_n5674# a_n312_n6526# DGNDD.t231 sky130_fd_pr__nfet_01v8 ad=0.063 pd=0.72 as=0.063 ps=0.72 w=0.42 l=0.15
X41 DGNDD.t216 B4.t0 a_414_n3956# DGNDD.t215 sky130_fd_pr__nfet_01v8 ad=0.063 pd=0.72 as=0.063 ps=0.72 w=0.42 l=0.15
X42 a_414_n3687# B4.t1 DVDDD.t3 w_n825_n3765# sky130_fd_pr__pfet_01v8 ad=0.126 pd=1.14 as=0.126 ps=1.14 w=0.84 l=0.15
X43 a_1133_n5405# A6.t2 DVDDD.t133 w_n826_n5483# sky130_fd_pr__pfet_01v8 ad=0.126 pd=1.14 as=0.126 ps=1.14 w=0.84 l=0.15
X44 a_1406_n143# a_n250_n452# S0.t8 DVDDD.t112 sky130_fd_pr__pfet_01v8 ad=0.126 pd=1.14 as=0.126 ps=1.14 w=0.84 l=0.15
X45 S6.t5 a_n581_n4808# a_1403_n5674# DGNDD.t88 sky130_fd_pr__nfet_01v8 ad=0.126 pd=1.44 as=0.063 ps=0.72 w=0.42 l=0.15
X46 a_1134_n2985# A3.t4 DGNDD.t327 DGNDD.t326 sky130_fd_pr__nfet_01v8 ad=0.063 pd=0.72 as=0.063 ps=0.72 w=0.42 l=0.15
X47 a_413_n5405# A6.t3 DVDDD.t2 w_n826_n5483# sky130_fd_pr__pfet_01v8 ad=0.126 pd=1.14 as=0.252 ps=2.28 w=0.84 l=0.15
X48 a_413_n5674# a_n581_n4808# DGNDD.t87 DGNDD.t86 sky130_fd_pr__nfet_01v8 ad=0.063 pd=0.72 as=0.063 ps=0.72 w=0.42 l=0.15
X49 a_416_n412# B0.t2 DGNDD.t157 DGNDD.t156 sky130_fd_pr__nfet_01v8 ad=0.063 pd=0.72 as=0.063 ps=0.72 w=0.42 l=0.15
X50 a_414_n2985# A3.t5 DGNDD.t69 DGNDD.t68 sky130_fd_pr__nfet_01v8 ad=0.063 pd=0.72 as=0.126 ps=1.44 w=0.42 l=0.15
X51 a_n673_n1032# B1.t2 a_n583_n1301# w_n826_n1110# sky130_fd_pr__pfet_01v8 ad=0.126 pd=1.14 as=0.126 ps=1.14 w=0.84 l=0.15
X52 a_n583_n1301# B1.t3 a_n673_n1301# DGNDD.t113 sky130_fd_pr__nfet_01v8 ad=0.063 pd=0.72 as=0.063 ps=0.72 w=0.42 l=0.15
X53 S5.t9 a_n582_n3956# a_1405_n4808# DGNDD.t260 sky130_fd_pr__nfet_01v8 ad=0.063 pd=0.72 as=0.063 ps=0.72 w=0.42 l=0.15
X54 a_1405_n4539# B5.t0 a_1135_n4539# w_n824_n4617# sky130_fd_pr__pfet_01v8 ad=0.126 pd=1.14 as=0.126 ps=1.14 w=0.84 l=0.15
X55 DGNDD.t293 A3.t6 a_n672_n2985# DGNDD.t292 sky130_fd_pr__nfet_01v8 ad=0.063 pd=0.72 as=0.063 ps=0.72 w=0.42 l=0.15
X56 DGNDD.t61 B6.t1 a_n313_n5674# DGNDD.t60 sky130_fd_pr__nfet_01v8 ad=0.126 pd=1.44 as=0.063 ps=0.72 w=0.42 l=0.15
X57 a_415_n4808# B5.t1 DGNDD.t118 DGNDD.t117 sky130_fd_pr__nfet_01v8 ad=0.063 pd=0.72 as=0.063 ps=0.72 w=0.42 l=0.15
X58 DVDDD.t128 A5.t0 a_415_n4539# w_n824_n4617# sky130_fd_pr__pfet_01v8 ad=0.126 pd=1.14 as=0.126 ps=1.14 w=0.84 l=0.15
X59 a_1133_n1864# B2.t1 a_1403_n1864# w_n826_n1942# sky130_fd_pr__pfet_01v8 ad=0.126 pd=1.14 as=0.126 ps=1.14 w=0.84 l=0.15
X60 a_1133_n5405# A6.t4 DVDDD.t23 w_n826_n5483# sky130_fd_pr__pfet_01v8 ad=0.126 pd=1.14 as=0.126 ps=1.14 w=0.84 l=0.15
X61 S7.t9 a_n583_n5674# a_1404_n6257# w_n825_n6335# sky130_fd_pr__pfet_01v8 ad=0.126 pd=1.14 as=0.126 ps=1.14 w=0.84 l=0.15
X62 DGNDD.t335 A5.t1 a_n671_n4808# DGNDD.t334 sky130_fd_pr__nfet_01v8 ad=0.063 pd=0.72 as=0.063 ps=0.72 w=0.42 l=0.15
X63 a_1404_n6526# a_n583_n5674# S7.t6 DGNDD.t230 sky130_fd_pr__nfet_01v8 ad=0.063 pd=0.72 as=0.063 ps=0.72 w=0.42 l=0.15
X64 a_1134_n2985# A3.t7 DGNDD.t146 DGNDD.t145 sky130_fd_pr__nfet_01v8 ad=0.063 pd=0.72 as=0.063 ps=0.72 w=0.42 l=0.15
X65 a_413_n1864# a_n583_n2133# S2.t1 w_n826_n1942# sky130_fd_pr__pfet_01v8 ad=0.126 pd=1.14 as=0.126 ps=1.14 w=0.84 l=0.15
X66 a_414_n6257# B7.t1 DVDDD.t103 w_n825_n6335# sky130_fd_pr__pfet_01v8 ad=0.126 pd=1.14 as=0.126 ps=1.14 w=0.84 l=0.15
X67 DGNDD.t10 B7.t2 a_414_n6526# DGNDD.t9 sky130_fd_pr__nfet_01v8 ad=0.063 pd=0.72 as=0.063 ps=0.72 w=0.42 l=0.15
X68 a_n670_n143# A0.t3 DVDDD.t7 DVDDD.t6 sky130_fd_pr__pfet_01v8 ad=0.126 pd=1.14 as=0.252 ps=2.28 w=0.84 l=0.15
X69 a_1403_n1301# C0.t10 S1.t8 DGNDD.t37 sky130_fd_pr__nfet_01v8 ad=0.063 pd=0.72 as=0.063 ps=0.72 w=0.42 l=0.15
X70 S1.t6 C0.t11 a_1403_n1032# w_n826_n1110# sky130_fd_pr__pfet_01v8 ad=0.126 pd=1.14 as=0.126 ps=1.14 w=0.84 l=0.15
X71 a_416_n143# C0.t12 S0.t0 DVDDD.t34 sky130_fd_pr__pfet_01v8 ad=0.126 pd=1.14 as=0.126 ps=1.14 w=0.84 l=0.15
X72 DGNDD.t94 A2.t1 a_n673_n2133# DGNDD.t93 sky130_fd_pr__nfet_01v8 ad=0.063 pd=0.72 as=0.063 ps=0.72 w=0.42 l=0.15
X73 DVDDD.t70 B0.t3 a_n310_n143# DVDDD.t69 sky130_fd_pr__pfet_01v8 ad=0.252 pd=2.28 as=0.126 ps=1.14 w=0.84 l=0.15
X74 a_413_n1032# B1.t4 DVDDD.t50 w_n826_n1110# sky130_fd_pr__pfet_01v8 ad=0.126 pd=1.14 as=0.126 ps=1.14 w=0.84 l=0.15
X75 DGNDD.t284 B1.t5 a_413_n1301# DGNDD.t283 sky130_fd_pr__nfet_01v8 ad=0.063 pd=0.72 as=0.063 ps=0.72 w=0.42 l=0.15
X76 a_n313_n5674# a_n581_n4808# a_n583_n5674# DGNDD.t85 sky130_fd_pr__nfet_01v8 ad=0.063 pd=0.72 as=0.063 ps=0.72 w=0.42 l=0.15
X77 S0.t7 a_n250_n452# a_1406_n143# DVDDD.t111 sky130_fd_pr__pfet_01v8 ad=0.252 pd=2.28 as=0.126 ps=1.14 w=0.84 l=0.15
X78 a_1404_n2716# B3.t1 a_1134_n2716# w_n825_n2794# sky130_fd_pr__pfet_01v8 ad=0.126 pd=1.14 as=0.126 ps=1.14 w=0.84 l=0.15
X79 a_n312_n2716# B3.t2 DVDDD.t87 w_n825_n2794# sky130_fd_pr__pfet_01v8 ad=0.126 pd=1.14 as=0.126 ps=1.14 w=0.84 l=0.15
X80 DGNDD.t155 B0.t4 a_416_n412# DGNDD.t154 sky130_fd_pr__nfet_01v8 ad=0.063 pd=0.72 as=0.063 ps=0.72 w=0.42 l=0.15
X81 DGNDD.t42 A0.t4 a_n310_n412# DGNDD.t41 sky130_fd_pr__nfet_01v8 ad=0.063 pd=0.72 as=0.063 ps=0.72 w=0.42 l=0.15
X82 DVDDD.t101 A4.t1 a_n312_n3687# w_n825_n3765# sky130_fd_pr__pfet_01v8 ad=0.126 pd=1.14 as=0.126 ps=1.14 w=0.84 l=0.15
X83 S3.t7 a_n582_n2985# a_414_n2716# w_n825_n2794# sky130_fd_pr__pfet_01v8 ad=0.126 pd=1.14 as=0.126 ps=1.14 w=0.84 l=0.15
X84 DGNDD.t103 A4.t2 a_1134_n3956# DGNDD.t102 sky130_fd_pr__nfet_01v8 ad=0.063 pd=0.72 as=0.063 ps=0.72 w=0.42 l=0.15
X85 a_1403_n2133# B2.t2 a_1133_n2133# DGNDD.t137 sky130_fd_pr__nfet_01v8 ad=0.063 pd=0.72 as=0.063 ps=0.72 w=0.42 l=0.15
X86 a_n672_n2716# B3.t3 a_n582_n2985# w_n825_n2794# sky130_fd_pr__pfet_01v8 ad=0.126 pd=1.14 as=0.126 ps=1.14 w=0.84 l=0.15
X87 a_1133_n5674# A6.t5 DGNDD.t182 DGNDD.t181 sky130_fd_pr__nfet_01v8 ad=0.063 pd=0.72 as=0.063 ps=0.72 w=0.42 l=0.15
X88 DGNDD.t163 A2.t2 a_413_n2133# DGNDD.t162 sky130_fd_pr__nfet_01v8 ad=0.063 pd=0.72 as=0.063 ps=0.72 w=0.42 l=0.15
X89 DVDDD.t44 A6.t6 a_n313_n5405# w_n826_n5483# sky130_fd_pr__pfet_01v8 ad=0.126 pd=1.14 as=0.126 ps=1.14 w=0.84 l=0.15
X90 a_n582_n3956# a_n582_n2985# a_n312_n3687# w_n825_n3765# sky130_fd_pr__pfet_01v8 ad=0.126 pd=1.14 as=0.126 ps=1.14 w=0.84 l=0.15
X91 a_413_n5674# A6.t7 DGNDD.t71 DGNDD.t70 sky130_fd_pr__nfet_01v8 ad=0.063 pd=0.72 as=0.126 ps=1.44 w=0.42 l=0.15
X92 a_n312_n3956# A4.t3 DGNDD.t74 DGNDD.t73 sky130_fd_pr__nfet_01v8 ad=0.063 pd=0.72 as=0.063 ps=0.72 w=0.42 l=0.15
X93 DVDDD.t73 A0.t5 a_416_n143# DVDDD.t72 sky130_fd_pr__pfet_01v8 ad=0.126 pd=1.14 as=0.126 ps=1.14 w=0.84 l=0.15
X94 DGNDD.t269 a_n582_n2985# a_414_n3956# DGNDD.t268 sky130_fd_pr__nfet_01v8 ad=0.063 pd=0.72 as=0.063 ps=0.72 w=0.42 l=0.15
X95 a_n583_n5674# a_n581_n4808# a_n313_n5405# w_n826_n5483# sky130_fd_pr__pfet_01v8 ad=0.126 pd=1.14 as=0.126 ps=1.14 w=0.84 l=0.15
X96 DVDDD.t74 A7.t3 a_n312_n6257# w_n825_n6335# sky130_fd_pr__pfet_01v8 ad=0.126 pd=1.14 as=0.126 ps=1.14 w=0.84 l=0.15
X97 a_416_n412# a_n250_n452# DGNDD.t280 DGNDD.t279 sky130_fd_pr__nfet_01v8 ad=0.063 pd=0.72 as=0.063 ps=0.72 w=0.42 l=0.15
X98 a_1133_n5674# A6.t8 DGNDD.t59 DGNDD.t58 sky130_fd_pr__nfet_01v8 ad=0.063 pd=0.72 as=0.063 ps=0.72 w=0.42 l=0.15
X99 DGNDD.t247 A7.t4 a_1134_n6526# DGNDD.t246 sky130_fd_pr__nfet_01v8 ad=0.063 pd=0.72 as=0.063 ps=0.72 w=0.42 l=0.15
X100 DGNDD.t96 A1.t1 a_1133_n1301# DGNDD.t95 sky130_fd_pr__nfet_01v8 ad=0.063 pd=0.72 as=0.063 ps=0.72 w=0.42 l=0.15
X101 S4.t8 a_n582_n2985# a_1404_n3956# DGNDD.t267 sky130_fd_pr__nfet_01v8 ad=0.126 pd=1.44 as=0.063 ps=0.72 w=0.42 l=0.15
X102 a_1404_n3687# a_n582_n2985# S4.t5 w_n825_n3765# sky130_fd_pr__pfet_01v8 ad=0.126 pd=1.14 as=0.126 ps=1.14 w=0.84 l=0.15
X103 C7.t4 a_n583_n5674# a_n312_n6257# w_n825_n6335# sky130_fd_pr__pfet_01v8 ad=0.126 pd=1.14 as=0.126 ps=1.14 w=0.84 l=0.15
X104 a_n312_n6526# A7.t5 DGNDD.t245 DGNDD.t244 sky130_fd_pr__nfet_01v8 ad=0.063 pd=0.72 as=0.063 ps=0.72 w=0.42 l=0.15
X105 DVDDD.t30 B4.t2 a_414_n3687# w_n825_n3765# sky130_fd_pr__pfet_01v8 ad=0.126 pd=1.14 as=0.126 ps=1.14 w=0.84 l=0.15
X106 a_414_n3956# a_n582_n2985# DGNDD.t266 DGNDD.t265 sky130_fd_pr__nfet_01v8 ad=0.063 pd=0.72 as=0.063 ps=0.72 w=0.42 l=0.15
X107 a_n313_n5405# B6.t2 DVDDD.t81 w_n826_n5483# sky130_fd_pr__pfet_01v8 ad=0.126 pd=1.14 as=0.126 ps=1.14 w=0.84 l=0.15
X108 DVDDD.t121 A2.t3 a_n673_n1864# w_n826_n1942# sky130_fd_pr__pfet_01v8 ad=0.12375 pd=1.125 as=0.084 ps=0.76 w=0.83 l=0.15
X109 a_1403_n5405# B6.t3 a_1133_n5405# w_n826_n5483# sky130_fd_pr__pfet_01v8 ad=0.126 pd=1.14 as=0.126 ps=1.14 w=0.84 l=0.15
X110 DGNDD.t278 a_n250_n452# a_416_n412# DGNDD.t277 sky130_fd_pr__nfet_01v8 ad=0.063 pd=0.72 as=0.063 ps=0.72 w=0.42 l=0.15
X111 a_1404_n2985# B3.t4 a_1134_n2985# DGNDD.t138 sky130_fd_pr__nfet_01v8 ad=0.063 pd=0.72 as=0.063 ps=0.72 w=0.42 l=0.15
X112 a_n312_n2985# B3.t5 DGNDD.t21 DGNDD.t20 sky130_fd_pr__nfet_01v8 ad=0.063 pd=0.72 as=0.063 ps=0.72 w=0.42 l=0.15
X113 a_416_n143# B0.t5 DVDDD.t68 DVDDD.t67 sky130_fd_pr__pfet_01v8 ad=0.126 pd=1.14 as=0.126 ps=1.14 w=0.84 l=0.15
X114 S6.t7 a_n583_n5674# a_413_n5405# w_n826_n5483# sky130_fd_pr__pfet_01v8 ad=0.126 pd=1.14 as=0.126 ps=1.14 w=0.84 l=0.15
X115 DGNDD.t229 a_n583_n5674# a_414_n6526# DGNDD.t228 sky130_fd_pr__nfet_01v8 ad=0.063 pd=0.72 as=0.063 ps=0.72 w=0.42 l=0.15
X116 S3.t9 a_n582_n2985# a_414_n2985# DGNDD.t264 sky130_fd_pr__nfet_01v8 ad=0.063 pd=0.72 as=0.063 ps=0.72 w=0.42 l=0.15
X117 a_n583_n1301# B1.t6 a_n673_n1032# w_n826_n1110# sky130_fd_pr__pfet_01v8 ad=0.126 pd=1.14 as=0.126 ps=1.14 w=0.84 l=0.15
X118 DGNDD.t65 B4.t3 a_n312_n3956# DGNDD.t64 sky130_fd_pr__nfet_01v8 ad=0.126 pd=1.44 as=0.063 ps=0.72 w=0.42 l=0.15
X119 a_n673_n1301# A1.t2 DGNDD.t57 DGNDD.t56 sky130_fd_pr__nfet_01v8 ad=0.063 pd=0.72 as=0.126 ps=1.44 w=0.42 l=0.15
X120 DGNDD.t126 C0.t13 a_413_n1301# DGNDD.t125 sky130_fd_pr__nfet_01v8 ad=0.063 pd=0.72 as=0.063 ps=0.72 w=0.42 l=0.15
X121 S5.t6 a_n582_n3956# a_1405_n4539# w_n824_n4617# sky130_fd_pr__pfet_01v8 ad=0.126 pd=1.14 as=0.126 ps=1.14 w=0.84 l=0.15
X122 a_1405_n4808# a_n582_n3956# S5.t8 DGNDD.t259 sky130_fd_pr__nfet_01v8 ad=0.063 pd=0.72 as=0.063 ps=0.72 w=0.42 l=0.15
X123 a_n672_n2985# B3.t6 a_n582_n2985# DGNDD.t36 sky130_fd_pr__nfet_01v8 ad=0.063 pd=0.72 as=0.063 ps=0.72 w=0.42 l=0.15
X124 a_415_n4539# B5.t2 DVDDD.t56 w_n824_n4617# sky130_fd_pr__pfet_01v8 ad=0.126 pd=1.14 as=0.126 ps=1.14 w=0.84 l=0.15
X125 DGNDD.t287 B5.t3 a_415_n4808# DGNDD.t286 sky130_fd_pr__nfet_01v8 ad=0.063 pd=0.72 as=0.063 ps=0.72 w=0.42 l=0.15
X126 a_1403_n1864# B2.t3 a_1133_n1864# w_n826_n1942# sky130_fd_pr__pfet_01v8 ad=0.126 pd=1.14 as=0.126 ps=1.14 w=0.84 l=0.15
X127 DGNDD.t333 A6.t9 a_n313_n5674# DGNDD.t332 sky130_fd_pr__nfet_01v8 ad=0.063 pd=0.72 as=0.063 ps=0.72 w=0.42 l=0.15
X128 DVDDD.t75 A5.t2 a_n671_n4539# w_n824_n4617# sky130_fd_pr__pfet_01v8 ad=0.12375 pd=1.125 as=0.084 ps=0.76 w=0.83 l=0.15
X129 a_1404_n6257# a_n583_n5674# S7.t8 w_n825_n6335# sky130_fd_pr__pfet_01v8 ad=0.126 pd=1.14 as=0.126 ps=1.14 w=0.84 l=0.15
X130 a_n671_n4808# B5.t4 a_n581_n4808# DGNDD.t272 sky130_fd_pr__nfet_01v8 ad=0.063 pd=0.72 as=0.063 ps=0.72 w=0.42 l=0.15
X131 S7.t5 a_n583_n5674# a_1404_n6526# DGNDD.t227 sky130_fd_pr__nfet_01v8 ad=0.126 pd=1.44 as=0.063 ps=0.72 w=0.42 l=0.15
X132 DVDDD.t22 A2.t4 a_413_n1864# w_n826_n1942# sky130_fd_pr__pfet_01v8 ad=0.126 pd=1.14 as=0.126 ps=1.14 w=0.84 l=0.15
X133 DVDDD.t135 B7.t3 a_414_n6257# w_n825_n6335# sky130_fd_pr__pfet_01v8 ad=0.126 pd=1.14 as=0.126 ps=1.14 w=0.84 l=0.15
X134 a_414_n6526# a_n583_n5674# DGNDD.t226 DGNDD.t225 sky130_fd_pr__nfet_01v8 ad=0.063 pd=0.72 as=0.063 ps=0.72 w=0.42 l=0.15
X135 a_1403_n1032# C0.t14 S1.t5 w_n826_n1110# sky130_fd_pr__pfet_01v8 ad=0.126 pd=1.14 as=0.126 ps=1.14 w=0.84 l=0.15
X136 S1.t7 C0.t15 a_1403_n1301# DGNDD.t305 sky130_fd_pr__nfet_01v8 ad=0.126 pd=1.44 as=0.063 ps=0.72 w=0.42 l=0.15
X137 a_n673_n2133# B2.t4 a_n583_n2133# DGNDD.t217 sky130_fd_pr__nfet_01v8 ad=0.063 pd=0.72 as=0.063 ps=0.72 w=0.42 l=0.15
X138 DVDDD.t25 B1.t7 a_413_n1032# w_n826_n1110# sky130_fd_pr__pfet_01v8 ad=0.126 pd=1.14 as=0.126 ps=1.14 w=0.84 l=0.15
X139 a_n583_n5674# a_n581_n4808# a_n313_n5674# DGNDD.t84 sky130_fd_pr__nfet_01v8 ad=0.063 pd=0.72 as=0.063 ps=0.72 w=0.42 l=0.15
X140 a_413_n1301# C0.t16 DGNDD.t124 DGNDD.t123 sky130_fd_pr__nfet_01v8 ad=0.063 pd=0.72 as=0.063 ps=0.72 w=0.42 l=0.15
X141 a_1136_n412# A0.t6 DGNDD.t161 DGNDD.t160 sky130_fd_pr__nfet_01v8 ad=0.063 pd=0.72 as=0.063 ps=0.72 w=0.42 l=0.15
X142 DGNDD.t8 B7.t4 a_n312_n6526# DGNDD.t7 sky130_fd_pr__nfet_01v8 ad=0.126 pd=1.44 as=0.063 ps=0.72 w=0.42 l=0.15
X143 DVDDD.t66 B0.t6 a_416_n143# DVDDD.t65 sky130_fd_pr__pfet_01v8 ad=0.126 pd=1.14 as=0.126 ps=1.14 w=0.84 l=0.15
X144 a_1134_n2716# B3.t7 a_1404_n2716# w_n825_n2794# sky130_fd_pr__pfet_01v8 ad=0.126 pd=1.14 as=0.126 ps=1.14 w=0.84 l=0.15
X145 DVDDD.t1 A0.t7 a_n310_n143# DVDDD.t0 sky130_fd_pr__pfet_01v8 ad=0.126 pd=1.14 as=0.126 ps=1.14 w=0.84 l=0.15
X146 DGNDD.t49 B1.t8 a_n313_n1301# DGNDD.t48 sky130_fd_pr__nfet_01v8 ad=0.126 pd=1.44 as=0.063 ps=0.72 w=0.42 l=0.15
X147 a_414_n2716# a_n582_n2985# S3.t6 w_n825_n2794# sky130_fd_pr__pfet_01v8 ad=0.126 pd=1.14 as=0.126 ps=1.14 w=0.84 l=0.15
X148 a_1134_n3956# A4.t4 DGNDD.t33 DGNDD.t32 sky130_fd_pr__nfet_01v8 ad=0.063 pd=0.72 as=0.063 ps=0.72 w=0.42 l=0.15
X149 DVDDD.t21 A4.t5 a_1134_n3687# w_n825_n3765# sky130_fd_pr__pfet_01v8 ad=0.126 pd=1.14 as=0.126 ps=1.14 w=0.84 l=0.15
X150 a_414_n3956# A4.t6 DGNDD.t98 DGNDD.t97 sky130_fd_pr__nfet_01v8 ad=0.063 pd=0.72 as=0.126 ps=1.44 w=0.42 l=0.15
X151 S2.t9 a_n583_n1301# a_1403_n2133# DGNDD.t207 sky130_fd_pr__nfet_01v8 ad=0.063 pd=0.72 as=0.063 ps=0.72 w=0.42 l=0.15
X152 a_n313_n5674# B6.t4 DGNDD.t63 DGNDD.t62 sky130_fd_pr__nfet_01v8 ad=0.063 pd=0.72 as=0.063 ps=0.72 w=0.42 l=0.15
X153 a_n582_n2985# B3.t8 a_n672_n2716# w_n825_n2794# sky130_fd_pr__pfet_01v8 ad=0.126 pd=1.14 as=0.126 ps=1.14 w=0.84 l=0.15
X154 a_1403_n5674# B6.t5 a_1133_n5674# DGNDD.t185 sky130_fd_pr__nfet_01v8 ad=0.063 pd=0.72 as=0.063 ps=0.72 w=0.42 l=0.15
X155 a_413_n2133# B2.t5 DGNDD.t23 DGNDD.t22 sky130_fd_pr__nfet_01v8 ad=0.063 pd=0.72 as=0.063 ps=0.72 w=0.42 l=0.15
X156 S6.t9 a_n583_n5674# a_413_n5674# DGNDD.t224 sky130_fd_pr__nfet_01v8 ad=0.063 pd=0.72 as=0.063 ps=0.72 w=0.42 l=0.15
X157 DGNDD.t18 A4.t7 a_n672_n3956# DGNDD.t17 sky130_fd_pr__nfet_01v8 ad=0.063 pd=0.72 as=0.063 ps=0.72 w=0.42 l=0.15
X158 a_n313_n1301# C0.t17 a_n583_n1301# DGNDD.t288 sky130_fd_pr__nfet_01v8 ad=0.063 pd=0.72 as=0.063 ps=0.72 w=0.42 l=0.15
X159 DVDDD.t98 a_n582_n2985# a_414_n3687# w_n825_n3765# sky130_fd_pr__pfet_01v8 ad=0.126 pd=1.14 as=0.126 ps=1.14 w=0.84 l=0.15
X160 DGNDD.t79 A5.t3 a_1135_n4808# DGNDD.t78 sky130_fd_pr__nfet_01v8 ad=0.063 pd=0.72 as=0.063 ps=0.72 w=0.42 l=0.15
X161 a_1134_n3956# A4.t8 DGNDD.t47 DGNDD.t46 sky130_fd_pr__nfet_01v8 ad=0.063 pd=0.72 as=0.063 ps=0.72 w=0.42 l=0.15
X162 a_416_n143# a_n250_n452# DVDDD.t110 DVDDD.t109 sky130_fd_pr__pfet_01v8 ad=0.126 pd=1.14 as=0.126 ps=1.14 w=0.84 l=0.15
X163 DVDDD.t33 A7.t6 a_1134_n6257# w_n825_n6335# sky130_fd_pr__pfet_01v8 ad=0.126 pd=1.14 as=0.126 ps=1.14 w=0.84 l=0.15
X164 a_1134_n6526# A7.t7 DGNDD.t243 DGNDD.t242 sky130_fd_pr__nfet_01v8 ad=0.063 pd=0.72 as=0.063 ps=0.72 w=0.42 l=0.15
X165 a_414_n6526# A7.t8 DGNDD.t241 DGNDD.t240 sky130_fd_pr__nfet_01v8 ad=0.063 pd=0.72 as=0.126 ps=1.44 w=0.42 l=0.15
X166 DVDDD.t41 A1.t3 a_1133_n1032# w_n826_n1110# sky130_fd_pr__pfet_01v8 ad=0.126 pd=1.14 as=0.126 ps=1.14 w=0.84 l=0.15
X167 a_1133_n1301# A1.t4 DGNDD.t53 DGNDD.t52 sky130_fd_pr__nfet_01v8 ad=0.063 pd=0.72 as=0.063 ps=0.72 w=0.42 l=0.15
X168 S4.t4 a_n582_n2985# a_1404_n3687# w_n825_n3765# sky130_fd_pr__pfet_01v8 ad=0.252 pd=2.28 as=0.126 ps=1.14 w=0.84 l=0.15
X169 a_413_n1301# A1.t5 DGNDD.t309 DGNDD.t308 sky130_fd_pr__nfet_01v8 ad=0.063 pd=0.72 as=0.126 ps=1.44 w=0.42 l=0.15
X170 DGNDD.t239 A7.t9 a_n672_n6526# DGNDD.t238 sky130_fd_pr__nfet_01v8 ad=0.063 pd=0.72 as=0.063 ps=0.72 w=0.42 l=0.15
X171 DGNDD.t258 a_n582_n3956# a_415_n4808# DGNDD.t257 sky130_fd_pr__nfet_01v8 ad=0.063 pd=0.72 as=0.063 ps=0.72 w=0.42 l=0.15
X172 a_414_n3687# a_n582_n2985# DVDDD.t97 w_n825_n3765# sky130_fd_pr__pfet_01v8 ad=0.126 pd=1.14 as=0.126 ps=1.14 w=0.84 l=0.15
X173 DVDDD.t108 a_n250_n452# a_416_n143# DVDDD.t107 sky130_fd_pr__pfet_01v8 ad=0.126 pd=1.14 as=0.126 ps=1.14 w=0.84 l=0.15
X174 a_n673_n1864# B2.t6 a_n583_n2133# w_n826_n1942# sky130_fd_pr__pfet_01v8 ad=0.126 pd=1.14 as=0.126 ps=1.14 w=0.84 l=0.15
X175 a_1133_n5405# B6.t6 a_1403_n5405# w_n826_n5483# sky130_fd_pr__pfet_01v8 ad=0.126 pd=1.14 as=0.126 ps=1.14 w=0.84 l=0.15
X176 a_n310_n412# a_n250_n452# C0.t5 DGNDD.t276 sky130_fd_pr__nfet_01v8 ad=0.063 pd=0.72 as=0.063 ps=0.72 w=0.42 l=0.15
X177 a_1134_n2985# B3.t9 a_1404_n2985# DGNDD.t318 sky130_fd_pr__nfet_01v8 ad=0.063 pd=0.72 as=0.063 ps=0.72 w=0.42 l=0.15
X178 DVDDD.t94 a_n583_n5674# a_414_n6257# w_n825_n6335# sky130_fd_pr__pfet_01v8 ad=0.126 pd=1.14 as=0.126 ps=1.14 w=0.84 l=0.15
X179 a_413_n5405# a_n583_n5674# S6.t6 w_n826_n5483# sky130_fd_pr__pfet_01v8 ad=0.126 pd=1.14 as=0.126 ps=1.14 w=0.84 l=0.15
X180 a_1134_n6526# A7.t10 DGNDD.t237 DGNDD.t236 sky130_fd_pr__nfet_01v8 ad=0.063 pd=0.72 as=0.063 ps=0.72 w=0.42 l=0.15
X181 DVDDD.t10 B4.t4 a_n312_n3687# w_n825_n3765# sky130_fd_pr__pfet_01v8 ad=0.252 pd=2.28 as=0.126 ps=1.14 w=0.84 l=0.15
X182 a_414_n2985# a_n582_n2985# S3.t8 DGNDD.t263 sky130_fd_pr__nfet_01v8 ad=0.063 pd=0.72 as=0.063 ps=0.72 w=0.42 l=0.15
X183 a_n673_n1032# A1.t6 DVDDD.t130 w_n826_n1110# sky130_fd_pr__pfet_01v8 ad=0.126 pd=1.14 as=0.252 ps=2.28 w=0.84 l=0.15
X184 DVDDD.t16 C0.t18 a_413_n1032# w_n826_n1110# sky130_fd_pr__pfet_01v8 ad=0.126 pd=1.14 as=0.126 ps=1.14 w=0.84 l=0.15
X185 a_1133_n1301# A1.t7 DGNDD.t67 DGNDD.t66 sky130_fd_pr__nfet_01v8 ad=0.063 pd=0.72 as=0.063 ps=0.72 w=0.42 l=0.15
X186 a_1405_n4539# a_n582_n3956# S5.t5 w_n824_n4617# sky130_fd_pr__pfet_01v8 ad=0.126 pd=1.14 as=0.126 ps=1.14 w=0.84 l=0.15
X187 S5.t7 a_n582_n3956# a_1405_n4808# DGNDD.t256 sky130_fd_pr__nfet_01v8 ad=0.126 pd=1.44 as=0.063 ps=0.72 w=0.42 l=0.15
X188 a_n582_n2985# B3.t10 a_n672_n2985# DGNDD.t45 sky130_fd_pr__nfet_01v8 ad=0.063 pd=0.72 as=0.063 ps=0.72 w=0.42 l=0.15
X189 DVDDD.t19 B5.t5 a_415_n4539# w_n824_n4617# sky130_fd_pr__pfet_01v8 ad=0.126 pd=1.14 as=0.126 ps=1.14 w=0.84 l=0.15
X190 a_415_n4808# a_n582_n3956# DGNDD.t255 DGNDD.t254 sky130_fd_pr__nfet_01v8 ad=0.063 pd=0.72 as=0.063 ps=0.72 w=0.42 l=0.15
X191 S2.t6 a_n583_n1301# a_1403_n1864# w_n826_n1942# sky130_fd_pr__pfet_01v8 ad=0.126 pd=1.14 as=0.126 ps=1.14 w=0.84 l=0.15
X192 a_n581_n4808# B5.t6 a_n671_n4808# DGNDD.t77 sky130_fd_pr__nfet_01v8 ad=0.063 pd=0.72 as=0.063 ps=0.72 w=0.42 l=0.15
X193 a_n671_n4539# B5.t7 a_n581_n4808# w_n824_n4617# sky130_fd_pr__pfet_01v8 ad=0.126 pd=1.14 as=0.126 ps=1.14 w=0.84 l=0.15
X194 S7.t7 a_n583_n5674# a_1404_n6257# w_n825_n6335# sky130_fd_pr__pfet_01v8 ad=0.252 pd=2.28 as=0.126 ps=1.14 w=0.84 l=0.15
X195 a_413_n1864# B2.t7 DVDDD.t80 w_n826_n1942# sky130_fd_pr__pfet_01v8 ad=0.126 pd=1.14 as=0.126 ps=1.14 w=0.84 l=0.15
X196 a_414_n6257# a_n583_n5674# DVDDD.t93 w_n825_n6335# sky130_fd_pr__pfet_01v8 ad=0.126 pd=1.14 as=0.126 ps=1.14 w=0.84 l=0.15
X197 S1.t4 C0.t19 a_1403_n1032# w_n826_n1110# sky130_fd_pr__pfet_01v8 ad=0.252 pd=2.28 as=0.126 ps=1.14 w=0.84 l=0.15
X198 DGNDD.t212 B5.t8 a_n311_n4808# DGNDD.t211 sky130_fd_pr__nfet_01v8 ad=0.126 pd=1.44 as=0.063 ps=0.72 w=0.42 l=0.15
X199 a_n583_n2133# B2.t8 a_n673_n2133# DGNDD.t134 sky130_fd_pr__nfet_01v8 ad=0.063 pd=0.72 as=0.063 ps=0.72 w=0.42 l=0.15
X200 a_1136_n143# A0.t8 DVDDD.t91 DVDDD.t90 sky130_fd_pr__pfet_01v8 ad=0.126 pd=1.14 as=0.126 ps=1.14 w=0.84 l=0.15
X201 a_413_n1032# C0.t20 DVDDD.t78 w_n826_n1110# sky130_fd_pr__pfet_01v8 ad=0.126 pd=1.14 as=0.126 ps=1.14 w=0.84 l=0.15
X202 a_n313_n5674# A6.t10 DGNDD.t110 DGNDD.t109 sky130_fd_pr__nfet_01v8 ad=0.063 pd=0.72 as=0.063 ps=0.72 w=0.42 l=0.15
X203 C0.t4 a_n250_n452# a_n310_n412# DGNDD.t275 sky130_fd_pr__nfet_01v8 ad=0.063 pd=0.72 as=0.063 ps=0.72 w=0.42 l=0.15
X204 DVDDD.t105 B7.t5 a_n312_n6257# w_n825_n6335# sky130_fd_pr__pfet_01v8 ad=0.252 pd=2.28 as=0.126 ps=1.14 w=0.84 l=0.15
X205 a_1404_n2716# B3.t11 a_1134_n2716# w_n825_n2794# sky130_fd_pr__pfet_01v8 ad=0.126 pd=1.14 as=0.126 ps=1.14 w=0.84 l=0.15
X206 DVDDD.t89 B1.t9 a_n313_n1032# w_n826_n1110# sky130_fd_pr__pfet_01v8 ad=0.252 pd=2.28 as=0.126 ps=1.14 w=0.84 l=0.15
X207 a_n312_n3956# B4.t5 DGNDD.t320 DGNDD.t319 sky130_fd_pr__nfet_01v8 ad=0.063 pd=0.72 as=0.063 ps=0.72 w=0.42 l=0.15
X208 a_1134_n3687# A4.t9 DVDDD.t134 w_n825_n3765# sky130_fd_pr__pfet_01v8 ad=0.126 pd=1.14 as=0.126 ps=1.14 w=0.84 l=0.15
X209 DVDDD.t12 A3.t8 a_414_n2716# w_n825_n2794# sky130_fd_pr__pfet_01v8 ad=0.126 pd=1.14 as=0.126 ps=1.14 w=0.84 l=0.15
X210 a_1404_n3956# B4.t6 a_1134_n3956# DGNDD.t19 sky130_fd_pr__nfet_01v8 ad=0.063 pd=0.72 as=0.063 ps=0.72 w=0.42 l=0.15
X211 DGNDD.t291 A1.t8 a_n313_n1301# DGNDD.t290 sky130_fd_pr__nfet_01v8 ad=0.063 pd=0.72 as=0.063 ps=0.72 w=0.42 l=0.15
X212 a_414_n3687# A4.t10 DVDDD.t14 w_n825_n3765# sky130_fd_pr__pfet_01v8 ad=0.126 pd=1.14 as=0.252 ps=2.28 w=0.84 l=0.15
X213 a_1403_n2133# a_n583_n1301# S2.t8 DGNDD.t206 sky130_fd_pr__nfet_01v8 ad=0.063 pd=0.72 as=0.063 ps=0.72 w=0.42 l=0.15
X214 S4.t3 a_n582_n3956# a_414_n3956# DGNDD.t253 sky130_fd_pr__nfet_01v8 ad=0.063 pd=0.72 as=0.063 ps=0.72 w=0.42 l=0.15
X215 a_n672_n2716# A3.t9 DVDDD.t125 w_n825_n2794# sky130_fd_pr__pfet_01v8 ad=0.126 pd=1.14 as=0.252 ps=2.28 w=0.84 l=0.15
X216 a_1133_n5674# B6.t7 a_1403_n5674# DGNDD.t100 sky130_fd_pr__nfet_01v8 ad=0.063 pd=0.72 as=0.063 ps=0.72 w=0.42 l=0.15
X217 DGNDD.t44 B2.t9 a_413_n2133# DGNDD.t43 sky130_fd_pr__nfet_01v8 ad=0.063 pd=0.72 as=0.063 ps=0.72 w=0.42 l=0.15
X218 a_n672_n3956# B4.t7 a_n582_n3956# DGNDD.t144 sky130_fd_pr__nfet_01v8 ad=0.063 pd=0.72 as=0.063 ps=0.72 w=0.42 l=0.15
X219 DVDDD.t99 A4.t11 a_n672_n3687# w_n825_n3765# sky130_fd_pr__pfet_01v8 ad=0.12375 pd=1.125 as=0.084 ps=0.76 w=0.83 l=0.15
X220 a_413_n5674# a_n583_n5674# S6.t8 DGNDD.t223 sky130_fd_pr__nfet_01v8 ad=0.063 pd=0.72 as=0.063 ps=0.72 w=0.42 l=0.15
X221 a_n583_n1301# C0.t21 a_n313_n1301# DGNDD.t321 sky130_fd_pr__nfet_01v8 ad=0.063 pd=0.72 as=0.063 ps=0.72 w=0.42 l=0.15
X222 a_n313_n1032# C0.t22 a_n583_n1301# w_n826_n1110# sky130_fd_pr__pfet_01v8 ad=0.126 pd=1.14 as=0.126 ps=1.14 w=0.84 l=0.15
X223 DVDDD.t24 A5.t4 a_1135_n4539# w_n824_n4617# sky130_fd_pr__pfet_01v8 ad=0.126 pd=1.14 as=0.126 ps=1.14 w=0.84 l=0.15
X224 a_1134_n3687# A4.t12 DVDDD.t35 w_n825_n3765# sky130_fd_pr__pfet_01v8 ad=0.126 pd=1.14 as=0.126 ps=1.14 w=0.84 l=0.15
X225 a_1135_n4808# A5.t5 DGNDD.t303 DGNDD.t302 sky130_fd_pr__nfet_01v8 ad=0.063 pd=0.72 as=0.063 ps=0.72 w=0.42 l=0.15
X226 a_n310_n412# A0.t9 DGNDD.t178 DGNDD.t177 sky130_fd_pr__nfet_01v8 ad=0.063 pd=0.72 as=0.063 ps=0.72 w=0.42 l=0.15
X227 DVDDD.t47 A6.t11 a_n673_n5405# w_n826_n5483# sky130_fd_pr__pfet_01v8 ad=0.12375 pd=1.125 as=0.084 ps=0.76 w=0.83 l=0.15
X228 a_415_n4808# A5.t6 DGNDD.t176 DGNDD.t175 sky130_fd_pr__nfet_01v8 ad=0.063 pd=0.72 as=0.126 ps=1.44 w=0.42 l=0.15
X229 a_1134_n6257# A7.t11 DVDDD.t119 w_n825_n6335# sky130_fd_pr__pfet_01v8 ad=0.126 pd=1.14 as=0.126 ps=1.14 w=0.84 l=0.15
X230 a_n312_n6526# B7.t6 DGNDD.t6 DGNDD.t5 sky130_fd_pr__nfet_01v8 ad=0.063 pd=0.72 as=0.063 ps=0.72 w=0.42 l=0.15
X231 a_1404_n6526# B7.t7 a_1134_n6526# DGNDD.t4 sky130_fd_pr__nfet_01v8 ad=0.063 pd=0.72 as=0.063 ps=0.72 w=0.42 l=0.15
X232 a_414_n6257# A7.t12 DVDDD.t11 w_n825_n6335# sky130_fd_pr__pfet_01v8 ad=0.126 pd=1.14 as=0.252 ps=2.28 w=0.84 l=0.15
X233 S7.t1 C7.t8 a_414_n6526# DGNDD.t289 sky130_fd_pr__nfet_01v8 ad=0.063 pd=0.72 as=0.063 ps=0.72 w=0.42 l=0.15
X234 a_n313_n1301# B1.t10 DGNDD.t174 DGNDD.t173 sky130_fd_pr__nfet_01v8 ad=0.063 pd=0.72 as=0.063 ps=0.72 w=0.42 l=0.15
X235 a_1133_n1032# A1.t9 DVDDD.t53 w_n826_n1110# sky130_fd_pr__pfet_01v8 ad=0.126 pd=1.14 as=0.126 ps=1.14 w=0.84 l=0.15
X236 a_1403_n1301# B1.t11 a_1133_n1301# DGNDD.t323 sky130_fd_pr__nfet_01v8 ad=0.063 pd=0.72 as=0.063 ps=0.72 w=0.42 l=0.15
X237 a_413_n1032# A1.t10 DVDDD.t79 w_n826_n1110# sky130_fd_pr__pfet_01v8 ad=0.126 pd=1.14 as=0.252 ps=2.28 w=0.84 l=0.15
X238 DVDDD.t4 A7.t13 a_n672_n6257# w_n825_n6335# sky130_fd_pr__pfet_01v8 ad=0.12375 pd=1.125 as=0.084 ps=0.76 w=0.83 l=0.15
X239 S1.t3 a_n583_n1301# a_413_n1301# DGNDD.t205 sky130_fd_pr__nfet_01v8 ad=0.063 pd=0.72 as=0.063 ps=0.72 w=0.42 l=0.15
X240 a_n672_n6526# B7.t8 C7.t3 DGNDD.t3 sky130_fd_pr__nfet_01v8 ad=0.063 pd=0.72 as=0.063 ps=0.72 w=0.42 l=0.15
X241 DVDDD.t96 a_n582_n3956# a_415_n4539# w_n824_n4617# sky130_fd_pr__pfet_01v8 ad=0.126 pd=1.14 as=0.126 ps=1.14 w=0.84 l=0.15
X242 a_1135_n4808# A5.t7 DGNDD.t120 DGNDD.t119 sky130_fd_pr__nfet_01v8 ad=0.063 pd=0.72 as=0.063 ps=0.72 w=0.42 l=0.15
X243 a_n583_n2133# B2.t10 a_n673_n1864# w_n826_n1942# sky130_fd_pr__pfet_01v8 ad=0.126 pd=1.14 as=0.126 ps=1.14 w=0.84 l=0.15
X244 a_1403_n5405# B6.t8 a_1133_n5405# w_n826_n5483# sky130_fd_pr__pfet_01v8 ad=0.126 pd=1.14 as=0.126 ps=1.14 w=0.84 l=0.15
X245 a_1404_n2985# B3.t12 a_1134_n2985# DGNDD.t210 sky130_fd_pr__nfet_01v8 ad=0.063 pd=0.72 as=0.063 ps=0.72 w=0.42 l=0.15
X246 a_1134_n6257# A7.t14 DVDDD.t5 w_n825_n6335# sky130_fd_pr__pfet_01v8 ad=0.126 pd=1.14 as=0.126 ps=1.14 w=0.84 l=0.15