* NGSPICE file created from TOP.ext - technology: sky130A

.subckt TOP B1 S1 A1 A0 B0 C0 S0 B2 S2 A2 B3 S3 A3 B4 S4 A4 B5 S5 A5 B6 S6 A6 B7 S7
+ A7 DVDD DGND Cin C7
X0 a_1406_n143# B0.t0 a_1136_n143# DVDD.t86 sky130_fd_pr__pfet_01v8 ad=0.126 pd=1.14 as=0.126 ps=1.14 w=0.84 l=0.15
X1 DVDD.t114 A7.t0 a_414_n6257# w_n825_n6335# sky130_fd_pr__pfet_01v8 ad=0.126 pd=1.14 as=0.126 ps=1.14 w=0.84 l=0.15
X2 a_414_n6526# B7.t0 DGND.t275 DGND.t274 sky130_fd_pr__nfet_01v8 ad=0.063 pd=0.72 as=0.063 ps=0.72 w=0.42 l=0.15
X3 S1.t9 C7 a_1403_n1301# DGND.t93 sky130_fd_pr__nfet_01v8 ad=0.063 pd=0.72 as=0.063 ps=0.72 w=0.42 l=0.15
X4 a_1403_n1032# B1.t0 a_1133_n1032# w_n826_n1110# sky130_fd_pr__pfet_01v8 ad=0.126 pd=1.14 as=0.126 ps=1.14 w=0.84 l=0.15
X5 a_n670_n412# A0.t0 DGND.t178 DGND.t177 sky130_fd_pr__nfet_01v8 ad=0.063 pd=0.72 as=0.126 ps=1.44 w=0.42 l=0.15
X6 a_n313_n2133# A2.t0 DGND.t297 DGND.t296 sky130_fd_pr__nfet_01v8 ad=0.063 pd=0.72 as=0.063 ps=0.72 w=0.42 l=0.15
X7 a_416_n412# C7 S0.t4 DGND.t92 sky130_fd_pr__nfet_01v8 ad=0.063 pd=0.72 as=0.063 ps=0.72 w=0.42 l=0.15
X8 DGND.t228 B0.t1 a_n310_n412# DGND.t227 sky130_fd_pr__nfet_01v8 ad=0.126 pd=1.44 as=0.063 ps=0.72 w=0.42 l=0.15
X9 a_413_n1301# B1.t1 DGND.t9 DGND.t8 sky130_fd_pr__nfet_01v8 ad=0.063 pd=0.72 as=0.063 ps=0.72 w=0.42 l=0.15
X10 DVDD.t73 A1.t0 a_413_n1032# w_n826_n1110# sky130_fd_pr__pfet_01v8 ad=0.126 pd=1.14 as=0.126 ps=1.14 w=0.84 l=0.15
X11 a_n672_n6257# A7.t1 DVDD.t44 w_n825_n6335# sky130_fd_pr__pfet_01v8 ad=0.126 pd=1.14 as=0.252 ps=2.28 w=0.84 l=0.15
X12 S0.t2 C7 a_1406_n412# DGND.t91 sky130_fd_pr__nfet_01v8 ad=0.126 pd=1.44 as=0.063 ps=0.72 w=0.42 l=0.15
X13 S6.t2 C7 a_1403_n5405# w_n826_n5483# sky130_fd_pr__pfet_01v8 ad=0.252 pd=2.28 as=0.126 ps=1.14 w=0.84 l=0.15
X14 a_1134_n2716# A3.t0 DVDD.t108 w_n825_n2794# sky130_fd_pr__pfet_01v8 ad=0.126 pd=1.14 as=0.126 ps=1.14 w=0.84 l=0.15
X15 S3.t9 C7 a_1404_n2985# DGND.t90 sky130_fd_pr__nfet_01v8 ad=0.126 pd=1.44 as=0.063 ps=0.72 w=0.42 l=0.15
X16 a_413_n5405# C7 DVDD.t32 w_n826_n5483# sky130_fd_pr__pfet_01v8 ad=0.126 pd=1.14 as=0.126 ps=1.14 w=0.84 l=0.15
X17 a_414_n2716# A3.t1 DVDD.t65 w_n825_n2794# sky130_fd_pr__pfet_01v8 ad=0.126 pd=1.14 as=0.252 ps=2.28 w=0.84 l=0.15
X18 DGND.t15 A4.t0 a_n312_n3956# DGND.t14 sky130_fd_pr__nfet_01v8 ad=0.063 pd=0.72 as=0.063 ps=0.72 w=0.42 l=0.15
X19 a_414_n2985# C7 DGND.t89 DGND.t88 sky130_fd_pr__nfet_01v8 ad=0.063 pd=0.72 as=0.063 ps=0.72 w=0.42 l=0.15
X20 a_1133_n2133# B2.t0 a_1403_n2133# DGND.t215 sky130_fd_pr__nfet_01v8 ad=0.063 pd=0.72 as=0.063 ps=0.72 w=0.42 l=0.15
X21 a_416_n143# A0.t1 DVDD.t100 DVDD.t99 sky130_fd_pr__pfet_01v8 ad=0.126 pd=1.14 as=0.252 ps=2.28 w=0.84 l=0.15
X22 DVDD.t52 A3.t2 a_n672_n2716# w_n825_n2794# sky130_fd_pr__pfet_01v8 ad=0.12375 pd=1.125 as=0.084 ps=0.76 w=0.83 l=0.15
X23 DGND.t212 A6.t0 a_1133_n5674# DGND.t211 sky130_fd_pr__nfet_01v8 ad=0.063 pd=0.72 as=0.063 ps=0.72 w=0.42 l=0.15
X24 DVDD.t51 B6.t0 a_n313_n5405# w_n826_n5483# sky130_fd_pr__pfet_01v8 ad=0.252 pd=2.28 as=0.126 ps=1.14 w=0.84 l=0.15
X25 a_413_n2133# C7 S2.t4 DGND.t87 sky130_fd_pr__nfet_01v8 ad=0.063 pd=0.72 as=0.063 ps=0.72 w=0.42 l=0.15
X26 DGND.t139 B3.t0 a_n312_n2985# DGND.t138 sky130_fd_pr__nfet_01v8 ad=0.126 pd=1.44 as=0.063 ps=0.72 w=0.42 l=0.15
X27 a_n312_n3687# C7 C7 w_n825_n3765# sky130_fd_pr__pfet_01v8 ad=0.126 pd=1.14 as=0.126 ps=1.14 w=0.84 l=0.15
X28 C7 C7 a_n312_n3956# DGND.t86 sky130_fd_pr__nfet_01v8 ad=0.063 pd=0.72 as=0.063 ps=0.72 w=0.42 l=0.15
X29 S0.t9 C7 a_1406_n143# DVDD.t31 sky130_fd_pr__pfet_01v8 ad=0.126 pd=1.14 as=0.126 ps=1.14 w=0.84 l=0.15
X30 a_1134_n2716# A3.t3 DVDD.t95 w_n825_n2794# sky130_fd_pr__pfet_01v8 ad=0.126 pd=1.14 as=0.126 ps=1.14 w=0.84 l=0.15
X31 DGND.t200 A0.t2 a_416_n412# DGND.t199 sky130_fd_pr__nfet_01v8 ad=0.063 pd=0.72 as=0.063 ps=0.72 w=0.42 l=0.15
X32 a_n313_n5405# C7 C7.t19 w_n826_n5483# sky130_fd_pr__pfet_01v8 ad=0.126 pd=1.14 as=0.126 ps=1.14 w=0.84 l=0.15
X33 a_n673_n5674# A6.t1 DGND.t107 DGND.t106 sky130_fd_pr__nfet_01v8 ad=0.063 pd=0.72 as=0.126 ps=1.44 w=0.42 l=0.15
X34 DGND.t126 A7.t2 a_n312_n6526# DGND.t125 sky130_fd_pr__nfet_01v8 ad=0.063 pd=0.72 as=0.063 ps=0.72 w=0.42 l=0.15
X35 DGND.t85 C7 a_413_n5674# DGND.t84 sky130_fd_pr__nfet_01v8 ad=0.063 pd=0.72 as=0.063 ps=0.72 w=0.42 l=0.15
X36 a_1404_n3956# C7 S4.t9 DGND.t83 sky130_fd_pr__nfet_01v8 ad=0.063 pd=0.72 as=0.063 ps=0.72 w=0.42 l=0.15
X37 S4.t6 C7 a_1404_n3687# w_n825_n3765# sky130_fd_pr__pfet_01v8 ad=0.126 pd=1.14 as=0.126 ps=1.14 w=0.84 l=0.15
X38 S0.t6 C7 a_416_n143# DVDD.t30 sky130_fd_pr__pfet_01v8 ad=0.126 pd=1.14 as=0.126 ps=1.14 w=0.84 l=0.15
X39 a_n312_n6257# C7.t57 a_n582_n6526# w_n825_n6335# sky130_fd_pr__pfet_01v8 ad=0.126 pd=1.14 as=0.126 ps=1.14 w=0.84 l=0.15
X40 a_n582_n6526# C7.t58 a_n312_n6526# DGND.t248 sky130_fd_pr__nfet_01v8 ad=0.063 pd=0.72 as=0.063 ps=0.72 w=0.42 l=0.15
X41 DGND.t231 B4.t0 a_414_n3956# DGND.t230 sky130_fd_pr__nfet_01v8 ad=0.063 pd=0.72 as=0.063 ps=0.72 w=0.42 l=0.15
X42 a_414_n3687# B4.t1 DVDD.t70 w_n825_n3765# sky130_fd_pr__pfet_01v8 ad=0.126 pd=1.14 as=0.126 ps=1.14 w=0.84 l=0.15
X43 a_1133_n5405# A6.t2 DVDD.t123 w_n826_n5483# sky130_fd_pr__pfet_01v8 ad=0.126 pd=1.14 as=0.126 ps=1.14 w=0.84 l=0.15
X44 a_1406_n143# C7 S0.t8 DVDD.t29 sky130_fd_pr__pfet_01v8 ad=0.126 pd=1.14 as=0.126 ps=1.14 w=0.84 l=0.15
X45 S6.t5 C7 a_1403_n5674# DGND.t82 sky130_fd_pr__nfet_01v8 ad=0.126 pd=1.44 as=0.063 ps=0.72 w=0.42 l=0.15
X46 a_1134_n2985# A3.t4 DGND.t309 DGND.t308 sky130_fd_pr__nfet_01v8 ad=0.063 pd=0.72 as=0.063 ps=0.72 w=0.42 l=0.15
X47 a_413_n5405# A6.t3 DVDD.t36 w_n826_n5483# sky130_fd_pr__pfet_01v8 ad=0.126 pd=1.14 as=0.252 ps=2.28 w=0.84 l=0.15
X48 a_413_n5674# C7 DGND.t81 DGND.t80 sky130_fd_pr__nfet_01v8 ad=0.063 pd=0.72 as=0.063 ps=0.72 w=0.42 l=0.15
X49 a_416_n412# B0.t2 DGND.t226 DGND.t225 sky130_fd_pr__nfet_01v8 ad=0.063 pd=0.72 as=0.063 ps=0.72 w=0.42 l=0.15
X50 a_414_n2985# A3.t5 DGND.t137 DGND.t136 sky130_fd_pr__nfet_01v8 ad=0.063 pd=0.72 as=0.126 ps=1.44 w=0.42 l=0.15
X51 a_n673_n1032# B1.t2 C7 w_n826_n1110# sky130_fd_pr__pfet_01v8 ad=0.126 pd=1.14 as=0.126 ps=1.14 w=0.84 l=0.15
X52 C7 B1.t3 a_n673_n1301# DGND.t176 sky130_fd_pr__nfet_01v8 ad=0.063 pd=0.72 as=0.063 ps=0.72 w=0.42 l=0.15
X53 S5.t5 C7 a_1405_n4808# DGND.t79 sky130_fd_pr__nfet_01v8 ad=0.063 pd=0.72 as=0.063 ps=0.72 w=0.42 l=0.15
X54 a_1405_n4539# B5.t0 a_1135_n4539# w_n824_n4617# sky130_fd_pr__pfet_01v8 ad=0.126 pd=1.14 as=0.126 ps=1.14 w=0.84 l=0.15
X55 DGND.t185 A3.t6 a_n672_n2985# DGND.t184 sky130_fd_pr__nfet_01v8 ad=0.063 pd=0.72 as=0.063 ps=0.72 w=0.42 l=0.15
X56 DGND.t167 B6.t1 a_n313_n5674# DGND.t166 sky130_fd_pr__nfet_01v8 ad=0.126 pd=1.44 as=0.063 ps=0.72 w=0.42 l=0.15
X57 a_415_n4808# B5.t1 DGND.t321 DGND.t320 sky130_fd_pr__nfet_01v8 ad=0.063 pd=0.72 as=0.063 ps=0.72 w=0.42 l=0.15
X58 DVDD.t0 A5.t0 a_415_n4539# w_n824_n4617# sky130_fd_pr__pfet_01v8 ad=0.126 pd=1.14 as=0.126 ps=1.14 w=0.84 l=0.15
X59 a_1133_n1864# B2.t1 a_1403_n1864# w_n826_n1942# sky130_fd_pr__pfet_01v8 ad=0.126 pd=1.14 as=0.126 ps=1.14 w=0.84 l=0.15
X60 a_1133_n5405# A6.t4 DVDD.t50 w_n826_n5483# sky130_fd_pr__pfet_01v8 ad=0.126 pd=1.14 as=0.126 ps=1.14 w=0.84 l=0.15
X61 S7.t2 C7.t59 a_1404_n6257# w_n825_n6335# sky130_fd_pr__pfet_01v8 ad=0.126 pd=1.14 as=0.126 ps=1.14 w=0.84 l=0.15
X62 DGND.t172 A5.t1 a_n671_n4808# DGND.t171 sky130_fd_pr__nfet_01v8 ad=0.063 pd=0.72 as=0.063 ps=0.72 w=0.42 l=0.15
X63 a_1404_n6526# C7.t60 S7.t5 DGND.t324 sky130_fd_pr__nfet_01v8 ad=0.063 pd=0.72 as=0.063 ps=0.72 w=0.42 l=0.15
X64 a_1134_n2985# A3.t7 DGND.t333 DGND.t332 sky130_fd_pr__nfet_01v8 ad=0.063 pd=0.72 as=0.063 ps=0.72 w=0.42 l=0.15
X65 a_413_n1864# C7 S2.t9 w_n826_n1942# sky130_fd_pr__pfet_01v8 ad=0.126 pd=1.14 as=0.126 ps=1.14 w=0.84 l=0.15
X66 a_414_n6257# B7.t1 DVDD.t120 w_n825_n6335# sky130_fd_pr__pfet_01v8 ad=0.126 pd=1.14 as=0.126 ps=1.14 w=0.84 l=0.15
X67 DGND.t273 B7.t2 a_414_n6526# DGND.t272 sky130_fd_pr__nfet_01v8 ad=0.063 pd=0.72 as=0.063 ps=0.72 w=0.42 l=0.15
X68 a_n670_n143# A0.t3 DVDD.t39 DVDD.t38 sky130_fd_pr__pfet_01v8 ad=0.126 pd=1.14 as=0.252 ps=2.28 w=0.84 l=0.15
X69 a_1403_n1301# C7 S1.t8 DGND.t78 sky130_fd_pr__nfet_01v8 ad=0.063 pd=0.72 as=0.063 ps=0.72 w=0.42 l=0.15
X70 S1.t6 C7 a_1403_n1032# w_n826_n1110# sky130_fd_pr__pfet_01v8 ad=0.126 pd=1.14 as=0.126 ps=1.14 w=0.84 l=0.15
X71 a_416_n143# C7 S0.t5 DVDD.t28 sky130_fd_pr__pfet_01v8 ad=0.126 pd=1.14 as=0.126 ps=1.14 w=0.84 l=0.15
X72 DGND.t305 A2.t1 a_n673_n2133# DGND.t304 sky130_fd_pr__nfet_01v8 ad=0.063 pd=0.72 as=0.063 ps=0.72 w=0.42 l=0.15
X73 DVDD.t85 B0.t3 a_n310_n143# DVDD.t84 sky130_fd_pr__pfet_01v8 ad=0.252 pd=2.28 as=0.126 ps=1.14 w=0.84 l=0.15
X74 a_413_n1032# B1.t4 DVDD.t53 w_n826_n1110# sky130_fd_pr__pfet_01v8 ad=0.126 pd=1.14 as=0.126 ps=1.14 w=0.84 l=0.15
X75 DGND.t132 B1.t5 a_413_n1301# DGND.t131 sky130_fd_pr__nfet_01v8 ad=0.063 pd=0.72 as=0.063 ps=0.72 w=0.42 l=0.15
X76 a_n313_n5674# C7 C7.t23 DGND.t77 sky130_fd_pr__nfet_01v8 ad=0.063 pd=0.72 as=0.063 ps=0.72 w=0.42 l=0.15
X77 S0.t7 C7 a_1406_n143# DVDD.t27 sky130_fd_pr__pfet_01v8 ad=0.252 pd=2.28 as=0.126 ps=1.14 w=0.84 l=0.15
X78 a_1404_n2716# B3.t1 a_1134_n2716# w_n825_n2794# sky130_fd_pr__pfet_01v8 ad=0.126 pd=1.14 as=0.126 ps=1.14 w=0.84 l=0.15
X79 a_n312_n2716# B3.t2 DVDD.t46 w_n825_n2794# sky130_fd_pr__pfet_01v8 ad=0.126 pd=1.14 as=0.126 ps=1.14 w=0.84 l=0.15
X80 DGND.t224 B0.t4 a_416_n412# DGND.t223 sky130_fd_pr__nfet_01v8 ad=0.063 pd=0.72 as=0.063 ps=0.72 w=0.42 l=0.15
X81 DGND.t11 A0.t4 a_n310_n412# DGND.t10 sky130_fd_pr__nfet_01v8 ad=0.063 pd=0.72 as=0.063 ps=0.72 w=0.42 l=0.15
X82 DVDD.t43 A4.t1 a_n312_n3687# w_n825_n3765# sky130_fd_pr__pfet_01v8 ad=0.126 pd=1.14 as=0.126 ps=1.14 w=0.84 l=0.15
X83 S3.t6 C7 a_414_n2716# w_n825_n2794# sky130_fd_pr__pfet_01v8 ad=0.126 pd=1.14 as=0.126 ps=1.14 w=0.84 l=0.15
X84 DGND.t335 A4.t2 a_1134_n3956# DGND.t334 sky130_fd_pr__nfet_01v8 ad=0.063 pd=0.72 as=0.063 ps=0.72 w=0.42 l=0.15
X85 a_1403_n2133# B2.t2 a_1133_n2133# DGND.t108 sky130_fd_pr__nfet_01v8 ad=0.063 pd=0.72 as=0.063 ps=0.72 w=0.42 l=0.15
X86 a_n672_n2716# B3.t3 C7 w_n825_n2794# sky130_fd_pr__pfet_01v8 ad=0.126 pd=1.14 as=0.126 ps=1.14 w=0.84 l=0.15
X87 a_1133_n5674# A6.t5 DGND.t158 DGND.t157 sky130_fd_pr__nfet_01v8 ad=0.063 pd=0.72 as=0.063 ps=0.72 w=0.42 l=0.15
X88 DGND.t143 A2.t2 a_413_n2133# DGND.t142 sky130_fd_pr__nfet_01v8 ad=0.063 pd=0.72 as=0.063 ps=0.72 w=0.42 l=0.15
X89 DVDD.t133 A6.t6 a_n313_n5405# w_n826_n5483# sky130_fd_pr__pfet_01v8 ad=0.126 pd=1.14 as=0.126 ps=1.14 w=0.84 l=0.15
X90 C7 C7 a_n312_n3687# w_n825_n3765# sky130_fd_pr__pfet_01v8 ad=0.126 pd=1.14 as=0.126 ps=1.14 w=0.84 l=0.15
X91 a_413_n5674# A6.t7 DGND.t100 DGND.t99 sky130_fd_pr__nfet_01v8 ad=0.063 pd=0.72 as=0.126 ps=1.44 w=0.42 l=0.15
X92 a_n312_n3956# A4.t3 DGND.t150 DGND.t149 sky130_fd_pr__nfet_01v8 ad=0.063 pd=0.72 as=0.063 ps=0.72 w=0.42 l=0.15
X93 DVDD.t127 A0.t5 a_416_n143# DVDD.t126 sky130_fd_pr__pfet_01v8 ad=0.126 pd=1.14 as=0.126 ps=1.14 w=0.84 l=0.15
X94 DGND.t76 C7 a_414_n3956# DGND.t75 sky130_fd_pr__nfet_01v8 ad=0.063 pd=0.72 as=0.063 ps=0.72 w=0.42 l=0.15
X95 C7.t18 C7 a_n313_n5405# w_n826_n5483# sky130_fd_pr__pfet_01v8 ad=0.126 pd=1.14 as=0.126 ps=1.14 w=0.84 l=0.15
X96 DVDD.t115 A7.t3 a_n312_n6257# w_n825_n6335# sky130_fd_pr__pfet_01v8 ad=0.126 pd=1.14 as=0.126 ps=1.14 w=0.84 l=0.15
X97 a_416_n412# C7 DGND.t74 DGND.t73 sky130_fd_pr__nfet_01v8 ad=0.063 pd=0.72 as=0.063 ps=0.72 w=0.42 l=0.15
X98 a_1133_n5674# A6.t8 DGND.t301 DGND.t300 sky130_fd_pr__nfet_01v8 ad=0.063 pd=0.72 as=0.063 ps=0.72 w=0.42 l=0.15
X99 DGND.t124 A7.t4 a_1134_n6526# DGND.t123 sky130_fd_pr__nfet_01v8 ad=0.063 pd=0.72 as=0.063 ps=0.72 w=0.42 l=0.15
X100 DGND.t256 A1.t1 a_1133_n1301# DGND.t255 sky130_fd_pr__nfet_01v8 ad=0.063 pd=0.72 as=0.063 ps=0.72 w=0.42 l=0.15
X101 S4.t8 C7 a_1404_n3956# DGND.t72 sky130_fd_pr__nfet_01v8 ad=0.126 pd=1.44 as=0.063 ps=0.72 w=0.42 l=0.15
X102 a_1404_n3687# C7 S4.t5 w_n825_n3765# sky130_fd_pr__pfet_01v8 ad=0.126 pd=1.14 as=0.126 ps=1.14 w=0.84 l=0.15
X103 a_n582_n6526# C7.t62 a_n312_n6257# w_n825_n6335# sky130_fd_pr__pfet_01v8 ad=0.126 pd=1.14 as=0.126 ps=1.14 w=0.84 l=0.15
X104 a_n312_n6526# A7.t5 DGND.t122 DGND.t121 sky130_fd_pr__nfet_01v8 ad=0.063 pd=0.72 as=0.063 ps=0.72 w=0.42 l=0.15
X105 DVDD.t97 B4.t2 a_414_n3687# w_n825_n3765# sky130_fd_pr__pfet_01v8 ad=0.126 pd=1.14 as=0.126 ps=1.14 w=0.84 l=0.15
X106 a_414_n3956# C7 DGND.t71 DGND.t70 sky130_fd_pr__nfet_01v8 ad=0.063 pd=0.72 as=0.063 ps=0.72 w=0.42 l=0.15
X107 a_n313_n5405# B6.t2 DVDD.t10 w_n826_n5483# sky130_fd_pr__pfet_01v8 ad=0.126 pd=1.14 as=0.126 ps=1.14 w=0.84 l=0.15
X108 DVDD.t105 A2.t3 a_n673_n1864# w_n826_n1942# sky130_fd_pr__pfet_01v8 ad=0.12375 pd=1.125 as=0.084 ps=0.76 w=0.83 l=0.15
X109 a_1403_n5405# B6.t3 a_1133_n5405# w_n826_n5483# sky130_fd_pr__pfet_01v8 ad=0.126 pd=1.14 as=0.126 ps=1.14 w=0.84 l=0.15
X110 DGND.t69 C7 a_416_n412# DGND.t68 sky130_fd_pr__nfet_01v8 ad=0.063 pd=0.72 as=0.063 ps=0.72 w=0.42 l=0.15
X111 a_1404_n2985# B3.t4 a_1134_n2985# DGND.t183 sky130_fd_pr__nfet_01v8 ad=0.063 pd=0.72 as=0.063 ps=0.72 w=0.42 l=0.15
X112 a_n312_n2985# B3.t5 DGND.t251 DGND.t250 sky130_fd_pr__nfet_01v8 ad=0.063 pd=0.72 as=0.063 ps=0.72 w=0.42 l=0.15
X113 a_416_n143# B0.t5 DVDD.t83 DVDD.t82 sky130_fd_pr__pfet_01v8 ad=0.126 pd=1.14 as=0.126 ps=1.14 w=0.84 l=0.15
X114 S6.t9 C7.t63 a_413_n5405# w_n826_n5483# sky130_fd_pr__pfet_01v8 ad=0.126 pd=1.14 as=0.126 ps=1.14 w=0.84 l=0.15
X115 DGND.t303 C7.t64 a_414_n6526# DGND.t302 sky130_fd_pr__nfet_01v8 ad=0.063 pd=0.72 as=0.063 ps=0.72 w=0.42 l=0.15
X116 S3.t4 C7 a_414_n2985# DGND.t67 sky130_fd_pr__nfet_01v8 ad=0.063 pd=0.72 as=0.063 ps=0.72 w=0.42 l=0.15
X117 C7 B1.t6 a_n673_n1032# w_n826_n1110# sky130_fd_pr__pfet_01v8 ad=0.126 pd=1.14 as=0.126 ps=1.14 w=0.84 l=0.15
X118 DGND.t214 B4.t3 a_n312_n3956# DGND.t213 sky130_fd_pr__nfet_01v8 ad=0.126 pd=1.44 as=0.063 ps=0.72 w=0.42 l=0.15
X119 a_n673_n1301# A1.t2 DGND.t163 DGND.t162 sky130_fd_pr__nfet_01v8 ad=0.063 pd=0.72 as=0.126 ps=1.44 w=0.42 l=0.15
X120 DGND.t66 C7 a_413_n1301# DGND.t65 sky130_fd_pr__nfet_01v8 ad=0.063 pd=0.72 as=0.063 ps=0.72 w=0.42 l=0.15
X121 S5.t2 C7 a_1405_n4539# w_n824_n4617# sky130_fd_pr__pfet_01v8 ad=0.126 pd=1.14 as=0.126 ps=1.14 w=0.84 l=0.15
X122 a_1405_n4808# C7 S5.t4 DGND.t64 sky130_fd_pr__nfet_01v8 ad=0.063 pd=0.72 as=0.063 ps=0.72 w=0.42 l=0.15
X123 a_n672_n2985# B3.t6 C7 DGND.t133 sky130_fd_pr__nfet_01v8 ad=0.063 pd=0.72 as=0.063 ps=0.72 w=0.42 l=0.15
X124 a_415_n4539# B5.t2 DVDD.t71 w_n824_n4617# sky130_fd_pr__pfet_01v8 ad=0.126 pd=1.14 as=0.126 ps=1.14 w=0.84 l=0.15
X125 DGND.t293 B5.t3 a_415_n4808# DGND.t292 sky130_fd_pr__nfet_01v8 ad=0.063 pd=0.72 as=0.063 ps=0.72 w=0.42 l=0.15
X126 a_1403_n1864# B2.t3 a_1133_n1864# w_n826_n1942# sky130_fd_pr__pfet_01v8 ad=0.126 pd=1.14 as=0.126 ps=1.14 w=0.84 l=0.15
X127 DGND.t315 A6.t9 a_n313_n5674# DGND.t314 sky130_fd_pr__nfet_01v8 ad=0.063 pd=0.72 as=0.063 ps=0.72 w=0.42 l=0.15
X128 DVDD.t72 A5.t2 a_n671_n4539# w_n824_n4617# sky130_fd_pr__pfet_01v8 ad=0.12375 pd=1.125 as=0.084 ps=0.76 w=0.83 l=0.15
X129 a_1404_n6257# C7.t65 S7.t1 w_n825_n6335# sky130_fd_pr__pfet_01v8 ad=0.126 pd=1.14 as=0.126 ps=1.14 w=0.84 l=0.15
X130 a_n671_n4808# B5.t4 C7 DGND.t98 sky130_fd_pr__nfet_01v8 ad=0.063 pd=0.72 as=0.063 ps=0.72 w=0.42 l=0.15
X131 S7.t4 C7.t66 a_1404_n6526# DGND.t198 sky130_fd_pr__nfet_01v8 ad=0.126 pd=1.44 as=0.063 ps=0.72 w=0.42 l=0.15
X132 DVDD.t45 A2.t4 a_413_n1864# w_n826_n1942# sky130_fd_pr__pfet_01v8 ad=0.126 pd=1.14 as=0.126 ps=1.14 w=0.84 l=0.15
X133 DVDD.t113 B7.t3 a_414_n6257# w_n825_n6335# sky130_fd_pr__pfet_01v8 ad=0.126 pd=1.14 as=0.126 ps=1.14 w=0.84 l=0.15
X134 a_414_n6526# C7.t67 DGND.t285 DGND.t284 sky130_fd_pr__nfet_01v8 ad=0.063 pd=0.72 as=0.063 ps=0.72 w=0.42 l=0.15
X135 a_1403_n1032# C7 S1.t5 w_n826_n1110# sky130_fd_pr__pfet_01v8 ad=0.126 pd=1.14 as=0.126 ps=1.14 w=0.84 l=0.15
X136 S1.t7 C7 a_1403_n1301# DGND.t63 sky130_fd_pr__nfet_01v8 ad=0.126 pd=1.44 as=0.063 ps=0.72 w=0.42 l=0.15
X137 a_n673_n2133# B2.t4 C7 DGND.t186 sky130_fd_pr__nfet_01v8 ad=0.063 pd=0.72 as=0.063 ps=0.72 w=0.42 l=0.15
X138 DVDD.t98 B1.t7 a_413_n1032# w_n826_n1110# sky130_fd_pr__pfet_01v8 ad=0.126 pd=1.14 as=0.126 ps=1.14 w=0.84 l=0.15
X139 C7.t22 C7 a_n313_n5674# DGND.t62 sky130_fd_pr__nfet_01v8 ad=0.063 pd=0.72 as=0.063 ps=0.72 w=0.42 l=0.15
X140 a_413_n1301# C7 DGND.t61 DGND.t60 sky130_fd_pr__nfet_01v8 ad=0.063 pd=0.72 as=0.063 ps=0.72 w=0.42 l=0.15
X141 a_1136_n412# A0.t6 DGND.t188 DGND.t187 sky130_fd_pr__nfet_01v8 ad=0.063 pd=0.72 as=0.063 ps=0.72 w=0.42 l=0.15
X142 DGND.t271 B7.t4 a_n312_n6526# DGND.t270 sky130_fd_pr__nfet_01v8 ad=0.126 pd=1.44 as=0.063 ps=0.72 w=0.42 l=0.15
X143 DVDD.t81 B0.t6 a_416_n143# DVDD.t80 sky130_fd_pr__pfet_01v8 ad=0.126 pd=1.14 as=0.126 ps=1.14 w=0.84 l=0.15
X144 a_1134_n2716# B3.t7 a_1404_n2716# w_n825_n2794# sky130_fd_pr__pfet_01v8 ad=0.126 pd=1.14 as=0.126 ps=1.14 w=0.84 l=0.15
X145 DVDD.t56 A0.t7 a_n310_n143# DVDD.t55 sky130_fd_pr__pfet_01v8 ad=0.126 pd=1.14 as=0.126 ps=1.14 w=0.84 l=0.15
X146 DGND.t130 B1.t8 a_n313_n1301# DGND.t129 sky130_fd_pr__nfet_01v8 ad=0.126 pd=1.44 as=0.063 ps=0.72 w=0.42 l=0.15
X147 a_414_n2716# C7 S3.t5 w_n825_n2794# sky130_fd_pr__pfet_01v8 ad=0.126 pd=1.14 as=0.126 ps=1.14 w=0.84 l=0.15
X148 a_1134_n3956# A4.t4 DGND.t208 DGND.t207 sky130_fd_pr__nfet_01v8 ad=0.063 pd=0.72 as=0.063 ps=0.72 w=0.42 l=0.15
X149 DVDD.t122 A4.t5 a_1134_n3687# w_n825_n3765# sky130_fd_pr__pfet_01v8 ad=0.126 pd=1.14 as=0.126 ps=1.14 w=0.84 l=0.15
X150 a_414_n3956# A4.t6 DGND.t103 DGND.t102 sky130_fd_pr__nfet_01v8 ad=0.063 pd=0.72 as=0.126 ps=1.44 w=0.42 l=0.15
X151 S2.t7 C7 a_1403_n2133# DGND.t59 sky130_fd_pr__nfet_01v8 ad=0.063 pd=0.72 as=0.063 ps=0.72 w=0.42 l=0.15
X152 a_n313_n5674# B6.t4 DGND.t241 DGND.t240 sky130_fd_pr__nfet_01v8 ad=0.063 pd=0.72 as=0.063 ps=0.72 w=0.42 l=0.15
X153 C7 B3.t8 a_n672_n2716# w_n825_n2794# sky130_fd_pr__pfet_01v8 ad=0.126 pd=1.14 as=0.126 ps=1.14 w=0.84 l=0.15
X154 a_1403_n5674# B6.t5 a_1133_n5674# DGND.t210 sky130_fd_pr__nfet_01v8 ad=0.063 pd=0.72 as=0.063 ps=0.72 w=0.42 l=0.15
X155 a_413_n2133# B2.t5 DGND.t313 DGND.t312 sky130_fd_pr__nfet_01v8 ad=0.063 pd=0.72 as=0.063 ps=0.72 w=0.42 l=0.15
X156 S6.t7 C7.t68 a_413_n5674# DGND.t101 sky130_fd_pr__nfet_01v8 ad=0.063 pd=0.72 as=0.063 ps=0.72 w=0.42 l=0.15
X157 DGND.t95 A4.t7 a_n672_n3956# DGND.t94 sky130_fd_pr__nfet_01v8 ad=0.063 pd=0.72 as=0.063 ps=0.72 w=0.42 l=0.15
X158 a_n313_n1301# C7 C7 DGND.t58 sky130_fd_pr__nfet_01v8 ad=0.063 pd=0.72 as=0.063 ps=0.72 w=0.42 l=0.15
X159 DVDD.t26 C7 a_414_n3687# w_n825_n3765# sky130_fd_pr__pfet_01v8 ad=0.126 pd=1.14 as=0.126 ps=1.14 w=0.84 l=0.15
X160 DGND.t196 A5.t3 a_1135_n4808# DGND.t195 sky130_fd_pr__nfet_01v8 ad=0.063 pd=0.72 as=0.063 ps=0.72 w=0.42 l=0.15
X161 a_1134_n3956# A4.t8 DGND.t3 DGND.t2 sky130_fd_pr__nfet_01v8 ad=0.063 pd=0.72 as=0.063 ps=0.72 w=0.42 l=0.15
X162 a_416_n143# C7 DVDD.t25 DVDD.t24 sky130_fd_pr__pfet_01v8 ad=0.126 pd=1.14 as=0.126 ps=1.14 w=0.84 l=0.15
X163 DVDD.t121 A7.t6 a_1134_n6257# w_n825_n6335# sky130_fd_pr__pfet_01v8 ad=0.126 pd=1.14 as=0.126 ps=1.14 w=0.84 l=0.15
X164 a_1134_n6526# A7.t7 DGND.t120 DGND.t119 sky130_fd_pr__nfet_01v8 ad=0.063 pd=0.72 as=0.063 ps=0.72 w=0.42 l=0.15
X165 a_414_n6526# A7.t8 DGND.t118 DGND.t117 sky130_fd_pr__nfet_01v8 ad=0.063 pd=0.72 as=0.126 ps=1.44 w=0.42 l=0.15
X166 DVDD.t3 A1.t3 a_1133_n1032# w_n826_n1110# sky130_fd_pr__pfet_01v8 ad=0.126 pd=1.14 as=0.126 ps=1.14 w=0.84 l=0.15
X167 a_1133_n1301# A1.t4 DGND.t307 DGND.t306 sky130_fd_pr__nfet_01v8 ad=0.063 pd=0.72 as=0.063 ps=0.72 w=0.42 l=0.15
X168 S4.t4 C7 a_1404_n3687# w_n825_n3765# sky130_fd_pr__pfet_01v8 ad=0.252 pd=2.28 as=0.126 ps=1.14 w=0.84 l=0.15
X169 a_413_n1301# A1.t5 DGND.t174 DGND.t173 sky130_fd_pr__nfet_01v8 ad=0.063 pd=0.72 as=0.126 ps=1.44 w=0.42 l=0.15
X170 DGND.t116 A7.t9 a_n672_n6526# DGND.t115 sky130_fd_pr__nfet_01v8 ad=0.063 pd=0.72 as=0.063 ps=0.72 w=0.42 l=0.15
X171 DGND.t57 C7 a_415_n4808# DGND.t56 sky130_fd_pr__nfet_01v8 ad=0.063 pd=0.72 as=0.063 ps=0.72 w=0.42 l=0.15
X172 a_414_n3687# C7 DVDD.t23 w_n825_n3765# sky130_fd_pr__pfet_01v8 ad=0.126 pd=1.14 as=0.126 ps=1.14 w=0.84 l=0.15
X173 DVDD.t22 C7 a_416_n143# DVDD.t21 sky130_fd_pr__pfet_01v8 ad=0.126 pd=1.14 as=0.126 ps=1.14 w=0.84 l=0.15
X174 a_n673_n1864# B2.t6 C7 w_n826_n1942# sky130_fd_pr__pfet_01v8 ad=0.126 pd=1.14 as=0.126 ps=1.14 w=0.84 l=0.15
X175 a_1133_n5405# B6.t6 a_1403_n5405# w_n826_n5483# sky130_fd_pr__pfet_01v8 ad=0.126 pd=1.14 as=0.126 ps=1.14 w=0.84 l=0.15
X176 a_n310_n412# C7 C7 DGND.t55 sky130_fd_pr__nfet_01v8 ad=0.063 pd=0.72 as=0.063 ps=0.72 w=0.42 l=0.15
X177 a_1134_n2985# B3.t9 a_1404_n2985# DGND.t197 sky130_fd_pr__nfet_01v8 ad=0.063 pd=0.72 as=0.063 ps=0.72 w=0.42 l=0.15
X178 DVDD.t2 C7.t71 a_414_n6257# w_n825_n6335# sky130_fd_pr__pfet_01v8 ad=0.126 pd=1.14 as=0.126 ps=1.14 w=0.84 l=0.15
X179 a_413_n5405# C7.t72 S6.t8 w_n826_n5483# sky130_fd_pr__pfet_01v8 ad=0.126 pd=1.14 as=0.126 ps=1.14 w=0.84 l=0.15
X180 a_1134_n6526# A7.t10 DGND.t114 DGND.t113 sky130_fd_pr__nfet_01v8 ad=0.063 pd=0.72 as=0.063 ps=0.72 w=0.42 l=0.15
X181 DVDD.t90 B4.t4 a_n312_n3687# w_n825_n3765# sky130_fd_pr__pfet_01v8 ad=0.252 pd=2.28 as=0.126 ps=1.14 w=0.84 l=0.15
X182 a_414_n2985# C7 S3.t3 DGND.t54 sky130_fd_pr__nfet_01v8 ad=0.063 pd=0.72 as=0.063 ps=0.72 w=0.42 l=0.15
X183 a_n673_n1032# A1.t6 DVDD.t58 w_n826_n1110# sky130_fd_pr__pfet_01v8 ad=0.126 pd=1.14 as=0.252 ps=2.28 w=0.84 l=0.15
X184 DVDD.t12 C7 a_413_n1032# w_n826_n1110# sky130_fd_pr__pfet_01v8 ad=0.126 pd=1.14 as=0.126 ps=1.14 w=0.84 l=0.15
X185 a_1133_n1301# A1.t7 DGND.t202 DGND.t201 sky130_fd_pr__nfet_01v8 ad=0.063 pd=0.72 as=0.063 ps=0.72 w=0.42 l=0.15
X186 a_1405_n4539# C7 S5.t1 w_n824_n4617# sky130_fd_pr__pfet_01v8 ad=0.126 pd=1.14 as=0.126 ps=1.14 w=0.84 l=0.15
X187 S5.t3 C7 a_1405_n4808# DGND.t53 sky130_fd_pr__nfet_01v8 ad=0.126 pd=1.44 as=0.063 ps=0.72 w=0.42 l=0.15
X188 C7 B3.t10 a_n672_n2985# DGND.t16 sky130_fd_pr__nfet_01v8 ad=0.063 pd=0.72 as=0.063 ps=0.72 w=0.42 l=0.15
X189 DVDD.t9 B5.t5 a_415_n4539# w_n824_n4617# sky130_fd_pr__pfet_01v8 ad=0.126 pd=1.14 as=0.126 ps=1.14 w=0.84 l=0.15
X190 a_415_n4808# C7 DGND.t52 DGND.t51 sky130_fd_pr__nfet_01v8 ad=0.063 pd=0.72 as=0.063 ps=0.72 w=0.42 l=0.15
X191 S2.t2 C7 a_1403_n1864# w_n826_n1942# sky130_fd_pr__pfet_01v8 ad=0.126 pd=1.14 as=0.126 ps=1.14 w=0.84 l=0.15
X192 C7 B5.t6 a_n671_n4808# DGND.t242 sky130_fd_pr__nfet_01v8 ad=0.063 pd=0.72 as=0.063 ps=0.72 w=0.42 l=0.15
X193 a_n671_n4539# B5.t7 C7 w_n824_n4617# sky130_fd_pr__pfet_01v8 ad=0.126 pd=1.14 as=0.126 ps=1.14 w=0.84 l=0.15
X194 S7.t0 C7.t73 a_1404_n6257# w_n825_n6335# sky130_fd_pr__pfet_01v8 ad=0.252 pd=2.28 as=0.126 ps=1.14 w=0.84 l=0.15
X195 a_413_n1864# B2.t7 DVDD.t67 w_n826_n1942# sky130_fd_pr__pfet_01v8 ad=0.126 pd=1.14 as=0.126 ps=1.14 w=0.84 l=0.15
X196 a_414_n6257# C7.t74 DVDD.t88 w_n825_n6335# sky130_fd_pr__pfet_01v8 ad=0.126 pd=1.14 as=0.126 ps=1.14 w=0.84 l=0.15
X197 S1.t4 C7 a_1403_n1032# w_n826_n1110# sky130_fd_pr__pfet_01v8 ad=0.252 pd=2.28 as=0.126 ps=1.14 w=0.84 l=0.15
X198 DGND.t18 B5.t8 a_n311_n4808# DGND.t17 sky130_fd_pr__nfet_01v8 ad=0.126 pd=1.44 as=0.063 ps=0.72 w=0.42 l=0.15
X199 C7 B2.t8 a_n673_n2133# DGND.t291 sky130_fd_pr__nfet_01v8 ad=0.063 pd=0.72 as=0.063 ps=0.72 w=0.42 l=0.15
X200 a_1136_n143# A0.t8 DVDD.t62 DVDD.t61 sky130_fd_pr__pfet_01v8 ad=0.126 pd=1.14 as=0.126 ps=1.14 w=0.84 l=0.15
X201 a_413_n1032# C7 DVDD.t11 w_n826_n1110# sky130_fd_pr__pfet_01v8 ad=0.126 pd=1.14 as=0.126 ps=1.14 w=0.84 l=0.15
X202 a_n313_n5674# A6.t10 DGND.t328 DGND.t327 sky130_fd_pr__nfet_01v8 ad=0.063 pd=0.72 as=0.063 ps=0.72 w=0.42 l=0.15
X203 C7 C7 a_n310_n412# DGND.t50 sky130_fd_pr__nfet_01v8 ad=0.063 pd=0.72 as=0.063 ps=0.72 w=0.42 l=0.15
X204 DVDD.t87 B7.t5 a_n312_n6257# w_n825_n6335# sky130_fd_pr__pfet_01v8 ad=0.252 pd=2.28 as=0.126 ps=1.14 w=0.84 l=0.15
X205 a_1404_n2716# B3.t11 a_1134_n2716# w_n825_n2794# sky130_fd_pr__pfet_01v8 ad=0.126 pd=1.14 as=0.126 ps=1.14 w=0.84 l=0.15
X206 DVDD.t124 B1.t9 a_n313_n1032# w_n826_n1110# sky130_fd_pr__pfet_01v8 ad=0.252 pd=2.28 as=0.126 ps=1.14 w=0.84 l=0.15
X207 a_n312_n3956# B4.t5 DGND.t170 DGND.t169 sky130_fd_pr__nfet_01v8 ad=0.063 pd=0.72 as=0.063 ps=0.72 w=0.42 l=0.15
X208 a_1134_n3687# A4.t9 DVDD.t5 w_n825_n3765# sky130_fd_pr__pfet_01v8 ad=0.126 pd=1.14 as=0.126 ps=1.14 w=0.84 l=0.15
X209 DVDD.t34 A3.t8 a_414_n2716# w_n825_n2794# sky130_fd_pr__pfet_01v8 ad=0.126 pd=1.14 as=0.126 ps=1.14 w=0.84 l=0.15
X210 a_1404_n3956# B4.t6 a_1134_n3956# DGND.t168 sky130_fd_pr__nfet_01v8 ad=0.063 pd=0.72 as=0.063 ps=0.72 w=0.42 l=0.15
X211 DGND.t282 A1.t8 a_n313_n1301# DGND.t281 sky130_fd_pr__nfet_01v8 ad=0.063 pd=0.72 as=0.063 ps=0.72 w=0.42 l=0.15
X212 a_414_n3687# A4.t10 DVDD.t35 w_n825_n3765# sky130_fd_pr__pfet_01v8 ad=0.126 pd=1.14 as=0.252 ps=2.28 w=0.84 l=0.15
X213 a_1403_n2133# C7 S2.t6 DGND.t49 sky130_fd_pr__nfet_01v8 ad=0.063 pd=0.72 as=0.063 ps=0.72 w=0.42 l=0.15
X214 S4.t3 C7 a_414_n3956# DGND.t48 sky130_fd_pr__nfet_01v8 ad=0.063 pd=0.72 as=0.063 ps=0.72 w=0.42 l=0.15
X215 a_n672_n2716# A3.t9 DVDD.t109 w_n825_n2794# sky130_fd_pr__pfet_01v8 ad=0.126 pd=1.14 as=0.252 ps=2.28 w=0.84 l=0.15
X216 a_1133_n5674# B6.t7 a_1403_n5674# DGND.t159 sky130_fd_pr__nfet_01v8 ad=0.063 pd=0.72 as=0.063 ps=0.72 w=0.42 l=0.15
X217 DGND.t105 B2.t9 a_413_n2133# DGND.t104 sky130_fd_pr__nfet_01v8 ad=0.063 pd=0.72 as=0.063 ps=0.72 w=0.42 l=0.15
X218 a_n672_n3956# B4.t7 C7 DGND.t286 sky130_fd_pr__nfet_01v8 ad=0.063 pd=0.72 as=0.063 ps=0.72 w=0.42 l=0.15
X219 DVDD.t89 A4.t11 a_n672_n3687# w_n825_n3765# sky130_fd_pr__pfet_01v8 ad=0.12375 pd=1.125 as=0.084 ps=0.76 w=0.83 l=0.15
X220 a_413_n5674# C7.t76 S6.t6 DGND.t0 sky130_fd_pr__nfet_01v8 ad=0.063 pd=0.72 as=0.063 ps=0.72 w=0.42 l=0.15
X221 C7 C7 a_n313_n1301# DGND.t47 sky130_fd_pr__nfet_01v8 ad=0.063 pd=0.72 as=0.063 ps=0.72 w=0.42 l=0.15
X222 a_n313_n1032# C7 C7 w_n826_n1110# sky130_fd_pr__pfet_01v8 ad=0.126 pd=1.14 as=0.126 ps=1.14 w=0.84 l=0.15
X223 DVDD.t42 A5.t4 a_1135_n4539# w_n824_n4617# sky130_fd_pr__pfet_01v8 ad=0.126 pd=1.14 as=0.126 ps=1.14 w=0.84 l=0.15
X224 a_1134_n3687# A4.t12 DVDD.t102 w_n825_n3765# sky130_fd_pr__pfet_01v8 ad=0.126 pd=1.14 as=0.126 ps=1.14 w=0.84 l=0.15
X225 a_1135_n4808# A5.t5 DGND.t262 DGND.t261 sky130_fd_pr__nfet_01v8 ad=0.063 pd=0.72 as=0.063 ps=0.72 w=0.42 l=0.15
X226 a_n310_n412# A0.t9 DGND.t278 DGND.t277 sky130_fd_pr__nfet_01v8 ad=0.063 pd=0.72 as=0.063 ps=0.72 w=0.42 l=0.15
X227 DVDD.t59 A6.t11 a_n673_n5405# w_n826_n5483# sky130_fd_pr__pfet_01v8 ad=0.12375 pd=1.125 as=0.084 ps=0.76 w=0.83 l=0.15
X228 a_415_n4808# A5.t6 DGND.t147 DGND.t146 sky130_fd_pr__nfet_01v8 ad=0.063 pd=0.72 as=0.126 ps=1.44 w=0.42 l=0.15
X229 a_1134_n6257# A7.t11 DVDD.t119 w_n825_n6335# sky130_fd_pr__pfet_01v8 ad=0.126 pd=1.14 as=0.126 ps=1.14 w=0.84 l=0.15
X230 a_n312_n6526# B7.t6 DGND.t269 DGND.t268 sky130_fd_pr__nfet_01v8 ad=0.063 pd=0.72 as=0.063 ps=0.72 w=0.42 l=0.15
X231 a_1404_n6526# B7.t7 a_1134_n6526# DGND.t267 sky130_fd_pr__nfet_01v8 ad=0.063 pd=0.72 as=0.063 ps=0.72 w=0.42 l=0.15
X232 a_414_n6257# A7.t12 DVDD.t118 w_n825_n6335# sky130_fd_pr__pfet_01v8 ad=0.126 pd=1.14 as=0.252 ps=2.28 w=0.84 l=0.15
X233 S7.t7 a_n582_n6526# a_414_n6526# DGND.t246 sky130_fd_pr__nfet_01v8 ad=0.063 pd=0.72 as=0.063 ps=0.72 w=0.42 l=0.15
X234 a_n313_n1301# B1.t10 DGND.t326 DGND.t325 sky130_fd_pr__nfet_01v8 ad=0.063 pd=0.72 as=0.063 ps=0.72 w=0.42 l=0.15
X235 a_1133_n1032# A1.t9 DVDD.t40 w_n826_n1110# sky130_fd_pr__pfet_01v8 ad=0.126 pd=1.14 as=0.126 ps=1.14 w=0.84 l=0.15
X236 a_1403_n1301# B1.t11 a_1133_n1301# DGND.t276 sky130_fd_pr__nfet_01v8 ad=0.063 pd=0.72 as=0.063 ps=0.72 w=0.42 l=0.15
X237 a_413_n1032# A1.t10 DVDD.t41 w_n826_n1110# sky130_fd_pr__pfet_01v8 ad=0.126 pd=1.14 as=0.252 ps=2.28 w=0.84 l=0.15
X238 DVDD.t117 A7.t13 a_n672_n6257# w_n825_n6335# sky130_fd_pr__pfet_01v8 ad=0.12375 pd=1.125 as=0.084 ps=0.76 w=0.83 l=0.15
X239 S1.t3 C7 a_413_n1301# DGND.t46 sky130_fd_pr__nfet_01v8 ad=0.063 pd=0.72 as=0.063 ps=0.72 w=0.42 l=0.15
X240 a_n672_n6526# B7.t8 a_n582_n6526# DGND.t266 sky130_fd_pr__nfet_01v8 ad=0.063 pd=0.72 as=0.063 ps=0.72 w=0.42 l=0.15
X241 DVDD.t16 C7 a_415_n4539# w_n824_n4617# sky130_fd_pr__pfet_01v8 ad=0.126 pd=1.14 as=0.126 ps=1.14 w=0.84 l=0.15
X242 a_1135_n4808# A5.t7 DGND.t234 DGND.t233 sky130_fd_pr__nfet_01v8 ad=0.063 pd=0.72 as=0.063 ps=0.72 w=0.42 l=0.15
X243 C7 B2.t10 a_n673_n1864# w_n826_n1942# sky130_fd_pr__pfet_01v8 ad=0.126 pd=1.14 as=0.126 ps=1.14 w=0.84 l=0.15
X244 a_1403_n5405# B6.t8 a_1133_n5405# w_n826_n5483# sky130_fd_pr__pfet_01v8 ad=0.126 pd=1.14 as=0.126 ps=1.14 w=0.84 l=0.15
X245 a_1404_n2985# B3.t12 a_1134_n2985# DGND.t239 sky130_fd_pr__nfet_01v8 ad=0.063 pd=0.72 as=0.063 ps=0.72 w=0.42 l=0.15
X246 a_1134_n6257# A7.t14 DVDD.t116 w_n825_n6335# sky130_fd_pr__pfet_01v8 ad=0.126 pd=1.14 as=0.126 ps=1.14 w=0.84 l=0.15
X247 DVDD.t68 A6.t12 a_413_n5405# w_n826_n5483# sky130_fd_pr__pfet_01v8 ad=0.126 pd=1.14 as=0.126 ps=1.14 w=0.84 l=0.15
X248 DGND.t154 A3.t10 a_414_n2985# DGND.t153 sky130_fd_pr__nfet_01v8 ad=0.063 pd=0.72 as=0.063 ps=0.72 w=0.42 l=0.15
X249 a_1133_n1032# A1.t11 DVDD.t94 w_n826_n1110# sky130_fd_pr__pfet_01v8 ad=0.126 pd=1.14 as=0.126 ps=1.14 w=0.84 l=0.15
X250 DGND.t128 A2.t5 a_1133_n2133# DGND.t127 sky130_fd_pr__nfet_01v8 ad=0.063 pd=0.72 as=0.063 ps=0.72 w=0.42 l=0.15
X251 DGND.t141 A0.t10 a_n670_n412# DGND.t140 sky130_fd_pr__nfet_01v8 ad=0.063 pd=0.72 as=0.063 ps=0.72 w=0.42 l=0.15
X252 S5.t0 C7 a_1405_n4539# w_n824_n4617# sky130_fd_pr__pfet_01v8 ad=0.252 pd=2.28 as=0.126 ps=1.14 w=0.84 l=0.15
X253 a_n312_n2716# C7 C7 w_n825_n2794# sky130_fd_pr__pfet_01v8 ad=0.126 pd=1.14 as=0.126 ps=1.14 w=0.84 l=0.15
X254 a_n672_n2985# A3.t11 DGND.t206 DGND.t205 sky130_fd_pr__nfet_01v8 ad=0.063 pd=0.72 as=0.126 ps=1.44 w=0.42 l=0.15
X255 a_415_n4539# C7 DVDD.t20 w_n824_n4617# sky130_fd_pr__pfet_01v8 ad=0.126 pd=1.14 as=0.126 ps=1.14 w=0.84 l=0.15
X256 a_1403_n1864# C7 S2.t1 w_n826_n1942# sky130_fd_pr__pfet_01v8 ad=0.126 pd=1.14 as=0.126 ps=1.14 w=0.84 l=0.15
X257 a_n671_n4808# A5.t8 DGND.t323 DGND.t322 sky130_fd_pr__nfet_01v8 ad=0.063 pd=0.72 as=0.126 ps=1.44 w=0.42 l=0.15